@<TRIPOS>MOLECULE
mol_data/opt/m06hf/geoms/mol2/5al5al-5al.out
 35 37 0 0 0
SMALL
GASTEIGER

@<TRIPOS>ATOM
      1 C          -2.2178   -1.9960    0.0002 C.ar    1  LIG1       -0.0202
      2 C          -0.8591   -2.0325   -0.0003 C.ar    1  LIG1       -0.0123
      3 C          -0.2916   -0.7124   -0.0001 C.ar    1  LIG1        0.1353
      4 C          -1.2347    0.2842    0.0007 C.ar    1  LIG1        0.0676
      5 S          -2.8289   -0.3935    0.0010 S.2     1  LIG1       -0.0924
      6 H          -2.8974   -2.8324    0.0002 H       1  LIG1        0.0695
      7 H          -0.2882   -2.9476   -0.0008 H       1  LIG1        0.0660
      8 O           1.0333   -0.4213   -0.0004 O.3     1  LIG1       -0.4939
      9 C           1.9330   -1.5172   -0.0010 C.3     1  LIG1        0.0788
     10 H           2.9300   -1.0854   -0.0012 H       1  LIG1        0.0660
     11 H           1.7947   -2.1268    0.8949 H       1  LIG1        0.0660
     12 H           1.7942   -2.1264   -0.8970 H       1  LIG1        0.0660
     13 C          -0.9954    1.7245    0.0011 C.ar    1  LIG1        0.0336
     14 C           0.2112    2.3690    0.0009 C.ar    1  LIG1       -0.0039
     15 C           0.0594    3.7933    0.0015 C.ar    1  LIG1        0.1359
     16 C          -1.2465    4.2115    0.0023 C.ar    1  LIG1        0.0682
     17 S          -2.3123    2.8457    0.0022 S.2     1  LIG1       -0.0833
     18 H           1.1487    1.8380    0.0002 H       1  LIG1        0.0666
     19 O           1.0777    4.6905    0.0015 O.3     1  LIG1       -0.4939
     20 C           2.3941    4.1659    0.0007 C.3     1  LIG1        0.0788
     21 H           3.0590    5.0256    0.0008 H       1  LIG1        0.0660
     22 H           2.5677    3.5640    0.8957 H       1  LIG1        0.0660
     23 H           2.5669    3.5647   -0.8950 H       1  LIG1        0.0660
     24 C          -1.7366    5.5866    0.0031 C.ar    1  LIG1        0.0330
     25 C          -0.9914    6.7344    0.0033 C.ar    1  LIG1       -0.0045
     26 C          -1.8171    7.9115    0.0042 C.ar    1  LIG1        0.1277
     27 C          -3.1489    7.6337    0.0047 C.ar    1  LIG1        0.0180
     28 S          -3.4339    5.9356    0.0040 S.2     1  LIG1       -0.0923
     29 H          -3.9576    8.3436    0.0054 H       1  LIG1        0.0730
     30 H           0.0859    6.7182    0.0029 H       1  LIG1        0.0666
     31 O          -1.3689    9.1948    0.0046 O.3     1  LIG1       -0.4946
     32 C           0.0342    9.3760    0.0043 C.3     1  LIG1        0.0788
     33 H           0.1975   10.4506    0.0048 H       1  LIG1        0.0660
     34 H           0.4822    8.9348    0.8982 H       1  LIG1        0.0660
     35 H           0.4817    8.9357   -0.8902 H       1  LIG1        0.0660
@<TRIPOS>BOND
     1    12     9    1
     2    23    20    1
     3    35    32    1
     4    10     9    1
     5     9     8    1
     6     9    11    1
     7     7     2    1
     8     8     3    1
     9     2     3   ar
    10     2     1   ar
    11     3     4   ar
    12     6     1    1
    13     1     5   ar
    14    18    14    1
    15     4     5   ar
    16     4    13    1
    17    20    21    1
    18    20    19    1
    19    20    22    1
    20    14    13   ar
    21    14    15   ar
    22    13    17   ar
    23    19    15    1
    24    15    16   ar
    25    17    16   ar
    26    16    24    1
    27    30    25    1
    28    24    25   ar
    29    24    28   ar
    30    25    26   ar
    31    28    27   ar
    32    26    31    1
    33    26    27   ar
    34    32    31    1
    35    32    33    1
    36    32    34    1
    37    27    29    1
