@<TRIPOS>MOLECULE
mol_data/opt/m06hf/geoms/mol2/5al5al-5al-5al.out
 46 49 0 0 0
SMALL
GASTEIGER

@<TRIPOS>ATOM
      1 C          -2.1710   -2.0847   -0.0161 C.ar    1  LIG1       -0.0202
      2 C          -0.8120   -2.1226   -0.0082 C.ar    1  LIG1       -0.0123
      3 C          -0.2448   -0.8026   -0.0028 C.ar    1  LIG1        0.1353
      4 C          -1.1889    0.1936   -0.0067 C.ar    1  LIG1        0.0676
      5 S          -2.7818   -0.4828   -0.0173 S.2     1  LIG1       -0.0924
      6 H          -2.8513   -2.9201   -0.0214 H       1  LIG1        0.0695
      7 H          -0.2412   -3.0381   -0.0063 H       1  LIG1        0.0660
      8 O           1.0794   -0.5096    0.0055 O.3     1  LIG1       -0.4939
      9 C           1.9818   -1.6032    0.0093 C.3     1  LIG1        0.0788
     10 H           2.9777   -1.1684    0.0160 H       1  LIG1        0.0660
     11 H           1.8394   -2.2140    0.9034 H       1  LIG1        0.0660
     12 H           1.8502   -2.2114   -0.8883 H       1  LIG1        0.0660
     13 C          -0.9481    1.6338   -0.0030 C.ar    1  LIG1        0.0336
     14 C           0.2597    2.2761    0.0047 C.ar    1  LIG1       -0.0039
     15 C           0.1109    3.7005    0.0062 C.ar    1  LIG1        0.1359
     16 C          -1.1952    4.1207   -0.0002 C.ar    1  LIG1        0.0682
     17 S          -2.2645    2.7557   -0.0083 S.2     1  LIG1       -0.0833
     18 H           1.1953    1.7423    0.0089 H       1  LIG1        0.0666
     19 O           1.1324    4.5937    0.0133 O.3     1  LIG1       -0.4939
     20 C           2.4458    4.0604    0.0197 C.3     1  LIG1        0.0788
     21 H           3.1168    4.9149    0.0248 H       1  LIG1        0.0660
     22 H           2.6085    3.4564    0.9149 H       1  LIG1        0.0660
     23 H           2.6183    3.4593   -0.8756 H       1  LIG1        0.0660
     24 C          -1.6809    5.4948   -0.0006 C.ar    1  LIG1        0.0336
     25 C          -0.9337    6.6403    0.0061 C.ar    1  LIG1       -0.0039
     26 C          -1.7508    7.8167    0.0033 C.ar    1  LIG1        0.1359
     27 C          -3.0969    7.5564   -0.0054 C.ar    1  LIG1        0.0682
     28 S          -3.3779    5.8460   -0.0102 S.2     1  LIG1       -0.0833
     29 H           0.1429    6.6237    0.0126 H       1  LIG1        0.0666
     30 O          -1.2863    9.0921    0.0084 O.3     1  LIG1       -0.4939
     31 C           0.1205    9.2617    0.0181 C.3     1  LIG1        0.0788
     32 H           0.2907   10.3348    0.0213 H       1  LIG1        0.0660
     33 H           0.5544    8.8151    0.9152 H       1  LIG1        0.0660
     34 H           0.5663    8.8186   -0.8748 H       1  LIG1        0.0660
     35 C          -4.1875    8.5274   -0.0102 C.ar    1  LIG1        0.0330
     36 C          -4.0871    9.8925   -0.0069 C.ar    1  LIG1       -0.0045
     37 C          -5.3771   10.5270   -0.0135 C.ar    1  LIG1        0.1277
     38 C          -6.4104    9.6422   -0.0217 C.ar    1  LIG1        0.0180
     39 S          -5.8428    8.0179   -0.0215 S.2     1  LIG1       -0.0923
     40 H          -7.4613    9.8736   -0.0277 H       1  LIG1        0.0730
     41 H          -3.1369   10.4000    0.0000 H       1  LIG1        0.0666
     42 O          -5.6004   11.8680   -0.0123 O.3     1  LIG1       -0.4946
     43 C          -4.4564   12.6994   -0.0019 C.3     1  LIG1        0.0788
     44 H          -4.8281   13.7211   -0.0017 H       1  LIG1        0.0660
     45 H          -3.8584   12.5247    0.8960 H       1  LIG1        0.0660
     46 H          -3.8459   12.5297   -0.8923 H       1  LIG1        0.0660
@<TRIPOS>BOND
     1    46    43    1
     2    12     9    1
     3    23    20    1
     4    34    31    1
     5    40    38    1
     6    38    39   ar
     7    38    37   ar
     8    39    35   ar
     9     6     1    1
    10     5     1   ar
    11     5     4   ar
    12     1     2   ar
    13    37    42    1
    14    37    36   ar
    15    42    43    1
    16    28    27   ar
    17    28    24   ar
    18    35    36   ar
    19    35    27    1
    20    17    13   ar
    21    17    16   ar
    22     2     7    1
    23     2     3   ar
    24    36    41    1
    25     4    13    1
    26     4     3   ar
    27    27    26   ar
    28    13    14   ar
    29     3     8    1
    30    43    44    1
    31    43    45    1
    32    24    16    1
    33    24    25   ar
    34    16    15   ar
    35    26    25   ar
    36    26    30    1
    37    14    15   ar
    38    14    18    1
    39     8     9    1
    40    25    29    1
    41    15    19    1
    42    30    31    1
    43     9    10    1
    44     9    11    1
    45    19    20    1
    46    31    32    1
    47    31    33    1
    48    20    21    1
    49    20    22    1
