@<TRIPOS>MOLECULE
mol_data/opt/m06hf/geoms/mol2/5al5al-5al-5al-.out
 46 49 0 0 0
SMALL
GASTEIGER

@<TRIPOS>ATOM
      1 C          -2.1712   -2.0844    0.0180 C.ar    1  LIG1       -0.0202
      2 C          -0.8121   -2.1226    0.0094 C.ar    1  LIG1       -0.0123
      3 C          -0.2447   -0.8027   -0.0000 C.ar    1  LIG1        0.1353
      4 C          -1.1886    0.1937    0.0023 C.ar    1  LIG1        0.0676
      5 S          -2.7817   -0.4824    0.0151 S.2     1  LIG1       -0.0924
      6 H          -2.8516   -2.9197    0.0262 H       1  LIG1        0.0695
      7 H          -0.2415   -3.0382    0.0097 H       1  LIG1        0.0660
      8 O           1.0795   -0.5100   -0.0104 O.3     1  LIG1       -0.4939
      9 C           1.9817   -1.6039   -0.0136 C.3     1  LIG1        0.0788
     10 H           2.9776   -1.1693   -0.0247 H       1  LIG1        0.0660
     11 H           1.8525   -2.2093    0.8861 H       1  LIG1        0.0660
     12 H           1.8365   -2.2173   -0.9055 H       1  LIG1        0.0660
     13 C          -0.9476    1.6339   -0.0039 C.ar    1  LIG1        0.0336
     14 C           0.2602    2.2760   -0.0135 C.ar    1  LIG1       -0.0039
     15 C           0.1115    3.7005   -0.0156 C.ar    1  LIG1        0.1359
     16 C          -1.1945    4.1208   -0.0077 C.ar    1  LIG1        0.0682
     17 S          -2.2640    2.7559    0.0026 S.2     1  LIG1       -0.0833
     18 H           1.1958    1.7423   -0.0184 H       1  LIG1        0.0666
     19 O           1.1330    4.5938   -0.0238 O.3     1  LIG1       -0.4939
     20 C           2.4463    4.0606   -0.0387 C.3     1  LIG1        0.0788
     21 H           3.1172    4.9151   -0.0488 H       1  LIG1        0.0660
     22 H           2.6250    3.4597    0.8555 H       1  LIG1        0.0660
     23 H           2.6031    3.4563   -0.9349 H       1  LIG1        0.0660
     24 C          -1.6802    5.4948   -0.0051 C.ar    1  LIG1        0.0336
     25 C          -0.9333    6.6404    0.0173 C.ar    1  LIG1       -0.0039
     26 C          -1.7507    7.8166    0.0156 C.ar    1  LIG1        0.1359
     27 C          -3.0965    7.5563   -0.0088 C.ar    1  LIG1        0.0682
     28 S          -3.3771    5.8459   -0.0325 S.2     1  LIG1       -0.0833
     29 H           0.1433    6.6240    0.0343 H       1  LIG1        0.0666
     30 O          -1.2868    9.0921    0.0344 O.3     1  LIG1       -0.4939
     31 C           0.1155    9.2627    0.1491 C.3     1  LIG1        0.0788
     32 H           0.2822   10.3356    0.1941 H       1  LIG1        0.0660
     33 H           0.4850    8.7911    1.0623 H       1  LIG1        0.0660
     34 H           0.6260    8.8454   -0.7215 H       1  LIG1        0.0660
     35 C          -4.1869    8.5275   -0.0084 C.ar    1  LIG1        0.0330
     36 C          -4.0860    9.8921   -0.0374 C.ar    1  LIG1       -0.0045
     37 C          -5.3756   10.5276   -0.0232 C.ar    1  LIG1        0.1277
     38 C          -6.4090    9.6438    0.0141 C.ar    1  LIG1        0.0180
     39 S          -5.8423    8.0192    0.0355 S.2     1  LIG1       -0.0923
     40 H          -7.4597    9.8760    0.0299 H       1  LIG1        0.0730
     41 H          -3.1357   10.3985   -0.0685 H       1  LIG1        0.0666
     42 O          -5.5979   11.8686   -0.0425 O.3     1  LIG1       -0.4946
     43 C          -4.4545   12.6977   -0.1190 C.3     1  LIG1        0.0788
     44 H          -4.8256   13.7194   -0.1419 H       1  LIG1        0.0660
     45 H          -3.8155   12.5574    0.7565 H       1  LIG1        0.0660
     46 H          -3.8862   12.4916   -1.0293 H       1  LIG1        0.0660
@<TRIPOS>BOND
     1    46    43    1
     2    23    20    1
     3    12     9    1
     4    34    31    1
     5    44    43    1
     6    43    42    1
     7    43    45    1
     8    41    36    1
     9    21    20    1
    10    42    37    1
    11    20    19    1
    12    20    22    1
    13    36    37   ar
    14    36    35   ar
    15    28    27   ar
    16    28    24   ar
    17    10     9    1
    18    19    15    1
    19    37    38   ar
    20    18    14    1
    21    15    14   ar
    22    15    16   ar
    23     9     8    1
    24     9    11    1
    25    14    13   ar
    26     8     3    1
    27    27    35    1
    28    27    26   ar
    29    35    39   ar
    30    16    24    1
    31    16    17   ar
    32    24    25   ar
    33    13     4    1
    34    13    17   ar
    35     3     4   ar
    36     3     2   ar
    37     4     5   ar
    38     2     7    1
    39     2     1   ar
    40    38    40    1
    41    38    39   ar
    42     5     1   ar
    43    26    25   ar
    44    26    30    1
    45    25    29    1
    46     1     6    1
    47    30    31    1
    48    31    32    1
    49    31    33    1
