@<TRIPOS>MOLECULE
mol_data/opt/m06hf/geoms/mol2/5al5al-5al5al-.out
 46 49 0 0 0
SMALL
GASTEIGER

@<TRIPOS>ATOM
      1 C          -2.1711   -2.0848    0.0007 C.ar    1  LIG1       -0.0202
      2 C          -0.8120   -2.1226   -0.0001 C.ar    1  LIG1       -0.0123
      3 C          -0.2448   -0.8026    0.0001 C.ar    1  LIG1        0.1353
      4 C          -1.1889    0.1936    0.0009 C.ar    1  LIG1        0.0676
      5 S          -2.7819   -0.4828    0.0015 S.2     1  LIG1       -0.0924
      6 H          -2.8514   -2.9201    0.0007 H       1  LIG1        0.0695
      7 H          -0.2413   -3.0382   -0.0007 H       1  LIG1        0.0660
      8 O           1.0794   -0.5097   -0.0005 O.3     1  LIG1       -0.4939
      9 C           1.9819   -1.6033   -0.0013 C.3     1  LIG1        0.0788
     10 H           2.9778   -1.1684   -0.0017 H       1  LIG1        0.0660
     11 H           1.8453   -2.2131    0.8944 H       1  LIG1        0.0660
     12 H           1.8444   -2.2125   -0.8973 H       1  LIG1        0.0660
     13 C          -0.9481    1.6338    0.0013 C.ar    1  LIG1        0.0336
     14 C           0.2597    2.2761    0.0009 C.ar    1  LIG1       -0.0039
     15 C           0.1109    3.7005    0.0015 C.ar    1  LIG1        0.1359
     16 C          -1.1952    4.1207    0.0023 C.ar    1  LIG1        0.0682
     17 S          -2.2645    2.7557    0.0023 S.2     1  LIG1       -0.0833
     18 H           1.1953    1.7423    0.0003 H       1  LIG1        0.0666
     19 O           1.1325    4.5937    0.0013 O.3     1  LIG1       -0.4939
     20 C           2.4458    4.0605    0.0004 C.3     1  LIG1        0.0788
     21 H           3.1169    4.9149    0.0004 H       1  LIG1        0.0660
     22 H           2.6140    3.4576    0.8954 H       1  LIG1        0.0660
     23 H           2.6130    3.4582   -0.8952 H       1  LIG1        0.0660
     24 C          -1.6809    5.4947    0.0031 C.ar    1  LIG1        0.0336
     25 C          -0.9337    6.6403    0.0033 C.ar    1  LIG1       -0.0039
     26 C          -1.7509    7.8167    0.0041 C.ar    1  LIG1        0.1359
     27 C          -3.0970    7.5564    0.0046 C.ar    1  LIG1        0.0682
     28 S          -3.3780    5.8459    0.0039 S.2     1  LIG1       -0.0833
     29 H           0.1430    6.6237    0.0028 H       1  LIG1        0.0666
     30 O          -1.2864    9.0921    0.0045 O.3     1  LIG1       -0.4939
     31 C           0.1205    9.2617    0.0044 C.3     1  LIG1        0.0788
     32 H           0.2907   10.3349    0.0049 H       1  LIG1        0.0660
     33 H           0.5605    8.8165    0.8992 H       1  LIG1        0.0660
     34 H           0.5602    8.8174   -0.8909 H       1  LIG1        0.0660
     35 C          -4.1876    8.5273    0.0055 C.ar    1  LIG1        0.0330
     36 C          -4.0872    9.8924    0.0060 C.ar    1  LIG1       -0.0045
     37 C          -5.3773   10.5269    0.0069 C.ar    1  LIG1        0.1277
     38 C          -6.4105    9.6421    0.0070 C.ar    1  LIG1        0.0180
     39 S          -5.8429    8.0177    0.0061 S.2     1  LIG1       -0.0923
     40 H          -7.4615    9.8735    0.0077 H       1  LIG1        0.0730
     41 H          -3.1370   10.3999    0.0057 H       1  LIG1        0.0666
     42 O          -5.6005   11.8679    0.0076 O.3     1  LIG1       -0.4946
     43 C          -4.4565   12.6993    0.0076 C.3     1  LIG1        0.0788
     44 H          -4.8282   13.7210    0.0083 H       1  LIG1        0.0660
     45 H          -3.8519   12.5267    0.9014 H       1  LIG1        0.0660
     46 H          -3.8526   12.5277   -0.8869 H       1  LIG1        0.0660
@<TRIPOS>BOND
     1    12     9    1
     2    23    20    1
     3    34    31    1
     4    46    43    1
     5    10     9    1
     6     9     8    1
     7     9    11    1
     8     7     2    1
     9     8     3    1
    10     2     3   ar
    11     2     1   ar
    12     3     4   ar
    13    18    14    1
    14    21    20    1
    15    20    19    1
    16    20    22    1
    17     1     6    1
    18     1     5   ar
    19    14    13   ar
    20    14    15   ar
    21     4    13    1
    22     4     5   ar
    23    13    17   ar
    24    19    15    1
    25    15    16   ar
    26    16    17   ar
    27    16    24    1
    28    29    25    1
    29    24    25   ar
    30    24    28   ar
    31    25    26   ar
    32    28    27   ar
    33    26    30    1
    34    26    27   ar
    35    31    30    1
    36    31    32    1
    37    31    33    1
    38    27    35    1
    39    35    36   ar
    40    35    39   ar
    41    41    36    1
    42    36    37   ar
    43    39    38   ar
    44    37    38   ar
    45    37    42    1
    46    38    40    1
    47    42    43    1
    48    43    44    1
    49    43    45    1
