@<TRIPOS>MOLECULE
mol_data/opt/m06hf/geoms/mol2/5al5al5al-.out
 35 37 0 0 0
SMALL
GASTEIGER

@<TRIPOS>ATOM
      1 C          -2.1773   -2.0078    0.1838 C.ar    1  LIG1       -0.0202
      2 C          -0.8351   -2.0307   -0.0306 C.ar    1  LIG1       -0.0123
      3 C          -0.2762   -0.7069   -0.0439 C.ar    1  LIG1        0.1353
      4 C          -1.2104    0.2765    0.1587 C.ar    1  LIG1        0.0676
      5 S          -2.7803   -0.4151    0.3864 S.2     1  LIG1       -0.0924
      6 H          -2.8468   -2.8502    0.2433 H       1  LIG1        0.0695
      7 H          -0.2692   -2.9380   -0.1742 H       1  LIG1        0.0660
      8 O           1.0332   -0.4008   -0.2275 O.3     1  LIG1       -0.4939
      9 C           1.8678   -1.4356   -0.7211 C.3     1  LIG1        0.0788
     10 H           2.8300   -0.9736   -0.9242 H       1  LIG1        0.0660
     11 H           1.9890   -2.2223    0.0274 H       1  LIG1        0.0660
     12 H           1.4546   -1.8531   -1.6415 H       1  LIG1        0.0660
     13 C          -0.9773    1.7174    0.1813 C.ar    1  LIG1        0.0336
     14 C           0.2135    2.3608    0.3677 C.ar    1  LIG1       -0.0039
     15 C           0.0663    3.7863    0.3282 C.ar    1  LIG1        0.1359
     16 C          -1.2230    4.2008    0.1209 C.ar    1  LIG1        0.0682
     17 S          -2.2755    2.8366   -0.0666 S.2     1  LIG1       -0.0833
     18 H           1.1368    1.8282    0.5292 H       1  LIG1        0.0666
     19 O           1.0706    4.6867    0.4787 O.3     1  LIG1       -0.4939
     20 C           2.3417    4.1712    0.8353 C.3     1  LIG1        0.0788
     21 H           2.9890    5.0343    0.9647 H       1  LIG1        0.0660
     22 H           2.2790    3.6112    1.7709 H       1  LIG1        0.0660
     23 H           2.7334    3.5312    0.0416 H       1  LIG1        0.0660
     24 C          -1.7093    5.5756    0.0506 C.ar    1  LIG1        0.0330
     25 C          -0.9701    6.7072   -0.1595 C.ar    1  LIG1       -0.0045
     26 C          -1.7899    7.8884   -0.1692 C.ar    1  LIG1        0.1277
     27 C          -3.1105    7.6249    0.0274 C.ar    1  LIG1        0.0180
     28 S          -3.3889    5.9423    0.2460 S.2     1  LIG1       -0.0923
     29 H          -3.9131    8.3412    0.0576 H       1  LIG1        0.0730
     30 H           0.0982    6.6759   -0.3028 H       1  LIG1        0.0666
     31 O          -1.3510    9.1603   -0.3578 O.3     1  LIG1       -0.4946
     32 C           0.0438    9.3329   -0.5192 C.3     1  LIG1        0.0788
     33 H           0.2013   10.4014   -0.6410 H       1  LIG1        0.0660
     34 H           0.5823    8.9783    0.3631 H       1  LIG1        0.0660
     35 H           0.4001    8.8057   -1.4077 H       1  LIG1        0.0660
@<TRIPOS>BOND
     1    12     9    1
     2    35    32    1
     3    10     9    1
     4     9     8    1
     5     9    11    1
     6    33    32    1
     7    32    31    1
     8    32    34    1
     9    31    26    1
    10    30    25    1
    11     8     3    1
    12     7     2    1
    13    26    25   ar
    14    26    27   ar
    15    25    24   ar
    16    17    16   ar
    17    17    13   ar
    18     3     2   ar
    19     3     4   ar
    20     2     1   ar
    21    27    29    1
    22    27    28   ar
    23    23    20    1
    24    24    16    1
    25    24    28   ar
    26    16    15   ar
    27     4    13    1
    28     4     5   ar
    29    13    14   ar
    30     1     6    1
    31     1     5   ar
    32    15    14   ar
    33    15    19    1
    34    14    18    1
    35    19    20    1
    36    20    21    1
    37    20    22    1
