@<TRIPOS>MOLECULE
mol_data/opt/m06hf/geoms/mol2/5al5al.out
 24 25 0 0 0
SMALL
GASTEIGER

@<TRIPOS>ATOM
      1 C          -2.2119   -1.8568    0.3300 C.ar    1  LIG1       -0.0202
      2 C          -0.8658   -1.9106    0.1471 C.ar    1  LIG1       -0.0123
      3 C          -0.2976   -0.5993   -0.0125 C.ar    1  LIG1        0.1353
      4 C          -1.2283    0.4047    0.0521 C.ar    1  LIG1        0.0676
      5 S          -2.8075   -0.2472    0.3272 S.2     1  LIG1       -0.0924
      6 H          -2.8882   -2.6830    0.4750 H       1  LIG1        0.0695
      7 H          -0.3044   -2.8317    0.1249 H       1  LIG1        0.0660
      8 O           1.0167   -0.3208   -0.2056 O.3     1  LIG1       -0.4939
      9 C           1.8867   -1.4254   -0.3782 C.3     1  LIG1        0.0788
     10 H           2.8694   -1.0047   -0.5735 H       1  LIG1        0.0660
     11 H           1.9202   -2.0346    0.5280 H       1  LIG1        0.0660
     12 H           1.5707   -2.0338   -1.2290 H       1  LIG1        0.0660
     13 C          -0.9825    1.8403   -0.0791 C.ar    1  LIG1        0.0330
     14 C           0.2025    2.4928    0.1098 C.ar    1  LIG1       -0.0045
     15 C           0.0743    3.9099   -0.0996 C.ar    1  LIG1        0.1277
     16 C          -1.1894    4.2883   -0.4328 C.ar    1  LIG1        0.0180
     17 S          -2.2470    2.9335   -0.5227 S.2     1  LIG1       -0.0923
     18 H          -1.5313    5.2887   -0.6337 H       1  LIG1        0.0730
     19 H           1.1066    1.9738    0.3858 H       1  LIG1        0.0666
     20 O           1.0746    4.8226    0.0135 O.3     1  LIG1       -0.4946
     21 C           2.3433    4.3264    0.3954 C.3     1  LIG1        0.0788
     22 H           3.0033    5.1889    0.4350 H       1  LIG1        0.0660
     23 H           2.2946    3.8540    1.3795 H       1  LIG1        0.0660
     24 H           2.7167    3.6107   -0.3413 H       1  LIG1        0.0660
@<TRIPOS>BOND
     1    12     9    1
     2    18    16    1
     3    10     9    1
     4    17    16   ar
     5    17    13   ar
     6    16    15   ar
     7     9     8    1
     8     9    11    1
     9    24    21    1
    10     8     3    1
    11    15    20    1
    12    15    14   ar
    13    13     4    1
    14    13    14   ar
    15     3     4   ar
    16     3     2   ar
    17    20    21    1
    18     4     5   ar
    19    14    19    1
    20     7     2    1
    21     2     1   ar
    22     5     1   ar
    23     1     6    1
    24    21    22    1
    25    21    23    1
