@<TRIPOS>MOLECULE
mol_data/opt/m06hf/geoms/mol2/5al5al-.out
 24 25 0 0 0
SMALL
GASTEIGER

@<TRIPOS>ATOM
      1 C          -2.2367   -1.8727    0.0003 C.ar    1  LIG1       -0.0202
      2 C          -0.8790   -1.9170   -0.0003 C.ar    1  LIG1       -0.0123
      3 C          -0.3035   -0.5996   -0.0001 C.ar    1  LIG1        0.1353
      4 C          -1.2404    0.4018    0.0007 C.ar    1  LIG1        0.0676
      5 S          -2.8371   -0.2652    0.0012 S.2     1  LIG1       -0.0924
      6 H          -2.9216   -2.7043    0.0003 H       1  LIG1        0.0695
      7 H          -0.3133   -2.8356   -0.0009 H       1  LIG1        0.0660
      8 O           1.0239   -0.3159   -0.0005 O.3     1  LIG1       -0.4939
      9 C           1.9176   -1.4158   -0.0013 C.3     1  LIG1        0.0788
     10 H           2.9167   -0.9886   -0.0016 H       1  LIG1        0.0660
     11 H           1.7778   -2.0253    0.8942 H       1  LIG1        0.0660
     12 H           1.7770   -2.0246   -0.8972 H       1  LIG1        0.0660
     13 C          -0.9983    1.8444    0.0012 C.ar    1  LIG1        0.0330
     14 C           0.2086    2.4882    0.0010 C.ar    1  LIG1       -0.0045
     15 C           0.0539    3.9180    0.0016 C.ar    1  LIG1        0.1277
     16 C          -1.2474    4.3158    0.0022 C.ar    1  LIG1        0.0180
     17 S          -2.3142    2.9667    0.0020 S.2     1  LIG1       -0.0923
     18 H          -1.6136    5.3278    0.0027 H       1  LIG1        0.0730
     19 H           1.1453    1.9557    0.0006 H       1  LIG1        0.0666
     20 O           1.0639    4.8266    0.0016 O.3     1  LIG1       -0.4946
     21 C           2.3814    4.3113    0.0013 C.3     1  LIG1        0.0788
     22 H           3.0414    5.1749    0.0014 H       1  LIG1        0.0660
     23 H           2.5623    3.7095    0.8955 H       1  LIG1        0.0660
     24 H           2.5621    3.7100   -0.8932 H       1  LIG1        0.0660
@<TRIPOS>BOND
     1    12     9    1
     2    24    21    1
     3    10     9    1
     4     9     8    1
     5     9    11    1
     6     7     2    1
     7     8     3    1
     8     2     3   ar
     9     2     1   ar
    10     3     4   ar
    11     6     1    1
    12     1     5   ar
    13    19    14    1
    14     4     5   ar
    15     4    13    1
    16    14    13   ar
    17    14    15   ar
    18    13    17   ar
    19    21    22    1
    20    21    20    1
    21    21    23    1
    22    20    15    1
    23    15    16   ar
    24    17    16   ar
    25    16    18    1
