@<TRIPOS>MOLECULE
mol_data/opt/m06hf/geoms/mol2/5da.out
 10 10 0 0 0
SMALL
GASTEIGER

@<TRIPOS>ATOM
      1 C          -2.0709   -1.6945   -0.0001 C.ar    1  LIG1       -0.0070
      2 C          -0.7060   -1.6657   -0.0002 C.ar    1  LIG1        0.0588
      3 C          -0.1684   -0.3333    0.0001 C.ar    1  LIG1       -0.0373
      4 C          -1.1534    0.6010    0.0004 C.ar    1  LIG1       -0.0231
      5 S          -2.7206   -0.1135    0.0005 S.2     1  LIG1       -0.1038
      6 H          -2.7063   -2.5653   -0.0003 H       1  LIG1        0.0706
      7 H          -1.0492    1.6736    0.0007 H       1  LIG1        0.0694
      8 N           0.7549   -3.8036   -0.0010 N.1     1  LIG1       -0.1909
      9 C           0.1042   -2.8585   -0.0007 C.1     1  LIG1        0.0997
     10 H           0.8883   -0.1168   -0.0000 H       1  LIG1        0.0636
@<TRIPOS>BOND
     1     8     9    3
     2     9     2    1
     3     6     1    1
     4     2     1   ar
     5     2     3   ar
     6     1     5   ar
     7    10     3    1
     8     3     4   ar
     9     4     5   ar
    10     4     7    1
