@<TRIPOS>MOLECULE
mol_data/opt/m06hf/geoms/mol2/5da5da-5da-.out
 26 28 0 0 0
SMALL
GASTEIGER

@<TRIPOS>ATOM
      1 C          -1.9829   -1.8923   -0.1308 C.ar    1  LIG1       -0.0063
      2 C          -0.6796   -1.8306    0.2739 C.ar    1  LIG1        0.0594
      3 C          -0.1580   -0.4970    0.3025 C.ar    1  LIG1       -0.0290
      4 C          -1.0940    0.4150   -0.0905 C.ar    1  LIG1        0.0284
      5 S          -2.5962   -0.3425   -0.5010 S.2     1  LIG1       -0.0948
      6 H          -2.5950   -2.7743   -0.2304 H       1  LIG1        0.0706
      7 N           0.6779   -3.9261    0.9587 N.1     1  LIG1       -0.1909
      8 C           0.0770   -2.9985    0.6519 C.1     1  LIG1        0.0997
      9 H           0.8476   -0.2490    0.6081 H       1  LIG1        0.0642
     10 C          -0.9294    1.8673   -0.1906 C.ar    1  LIG1        0.0439
     11 C           0.1883    2.5617   -0.5841 C.ar    1  LIG1        0.0676
     12 C           0.0178    3.9811   -0.5679 C.ar    1  LIG1       -0.0284
     13 C          -1.2344    4.3374   -0.1594 C.ar    1  LIG1        0.0290
     14 S          -2.1961    2.9512    0.2317 S.2     1  LIG1       -0.0859
     15 N           2.3824    1.4006   -1.3155 N.1     1  LIG1       -0.1908
     16 C           1.4064    1.9144   -0.9987 C.1     1  LIG1        0.1003
     17 H           0.7897    4.6775   -0.8601 H       1  LIG1        0.0642
     18 C          -1.7759    5.6909   -0.0123 C.ar    1  LIG1        0.0433
     19 C          -1.0975    6.8339    0.3350 C.ar    1  LIG1        0.0670
     20 C          -1.9339    7.9966    0.3982 C.ar    1  LIG1       -0.0367
     21 C          -3.2260    7.7025    0.1047 C.ar    1  LIG1       -0.0225
     22 S          -3.4427    6.0373   -0.2680 S.2     1  LIG1       -0.0948
     23 H          -4.0695    8.3732    0.0799 H       1  LIG1        0.0694
     24 N           1.4403    6.8770    0.8362 N.1     1  LIG1       -0.1908
     25 C           0.3128    6.8558    0.6223 C.1     1  LIG1        0.1003
     26 H          -1.5674    8.9773    0.6580 H       1  LIG1        0.0636
@<TRIPOS>BOND
     1    15    16    3
     2    16    11    1
     3    17    12    1
     4    11    12   ar
     5    11    10   ar
     6    12    13   ar
     7     5     1   ar
     8     5     4   ar
     9    22    18   ar
    10    22    21   ar
    11     6     1    1
    12    10     4    1
    13    10    14   ar
    14    13    18    1
    15    13    14   ar
    16     1     2   ar
    17     4     3   ar
    18    18    19   ar
    19    23    21    1
    20    21    20   ar
    21     2     3   ar
    22     2     8    1
    23     3     9    1
    24    19    20   ar
    25    19    25    1
    26    20    26    1
    27    25    24    3
    28     8     7    3
