@<TRIPOS>MOLECULE
mol_data/opt/m06hf/geoms/mol2/5da5da.out
 18 19 0 0 0
SMALL
GASTEIGER

@<TRIPOS>ATOM
      1 C          -2.0013   -1.7847   -0.4206 C.ar    1  LIG1       -0.0063
      2 C          -0.7387   -1.7806    0.1007 C.ar    1  LIG1        0.0594
      3 C          -0.2233   -0.4628    0.3275 C.ar    1  LIG1       -0.0290
      4 C          -1.1220    0.4972   -0.0360 C.ar    1  LIG1        0.0284
      5 S          -2.5833   -0.1971   -0.6583 S.2     1  LIG1       -0.0948
      6 H          -2.6003   -2.6443   -0.6742 H       1  LIG1        0.0706
      7 N           0.5620   -3.9514    0.6469 N.1     1  LIG1       -0.1909
      8 C          -0.0139   -2.9901    0.4023 C.1     1  LIG1        0.0997
      9 H           0.7530   -0.2612    0.7425 H       1  LIG1        0.0642
     10 C          -0.9526    1.9514    0.0413 C.ar    1  LIG1        0.0432
     11 C           0.1954    2.6758   -0.1648 C.ar    1  LIG1        0.0670
     12 C           0.0148    4.0897   -0.0020 C.ar    1  LIG1       -0.0367
     13 C          -1.2677    4.3982    0.3162 C.ar    1  LIG1       -0.0225
     14 S          -2.2588    2.9971    0.4429 S.2     1  LIG1       -0.0948
     15 H          -1.6912    5.3740    0.4891 H       1  LIG1        0.0694
     16 N           2.4602    1.5900   -0.7860 N.1     1  LIG1       -0.1908
     17 C           1.4523    2.0701   -0.5197 C.1     1  LIG1        0.1003
     18 H           0.8102    4.8073   -0.1299 H       1  LIG1        0.0636
@<TRIPOS>BOND
     1    16    17    3
     2     6     1    1
     3     5     1   ar
     4     5     4   ar
     5    17    11    1
     6     1     2   ar
     7    11    12   ar
     8    11    10   ar
     9    18    12    1
    10     4    10    1
    11     4     3   ar
    12    12    13   ar
    13    10    14   ar
    14     2     3   ar
    15     2     8    1
    16    13    14   ar
    17    13    15    1
    18     3     9    1
    19     8     7    3
