@<TRIPOS>MOLECULE
mol_data/opt/m06hf/geoms/mol2/5da5da-5da-5da.out
 34 37 0 0 0
SMALL
GASTEIGER

@<TRIPOS>ATOM
      1 C          -1.9834   -1.9370   -0.2298 C.ar    1  LIG1       -0.0063
      2 C          -0.6749   -1.9124    0.1622 C.ar    1  LIG1        0.0594
      3 C          -0.1343   -0.5893    0.2501 C.ar    1  LIG1       -0.0290
      4 C          -1.0612    0.3542   -0.0881 C.ar    1  LIG1        0.0284
      5 S          -2.5794   -0.3625   -0.5154 S.2     1  LIG1       -0.0948
      6 H          -2.6096   -2.8038   -0.3668 H       1  LIG1        0.0706
      7 N           0.6618   -4.0607    0.7131 N.1     1  LIG1       -0.1909
      8 C           0.0706   -3.1086    0.4678 C.1     1  LIG1        0.0997
      9 H           0.8789   -0.3734    0.5545 H       1  LIG1        0.0642
     10 C          -0.8772    1.8068   -0.1288 C.ar    1  LIG1        0.0439
     11 C           0.2554    2.5029   -0.4751 C.ar    1  LIG1        0.0676
     12 C           0.0946    3.9230   -0.4240 C.ar    1  LIG1       -0.0284
     13 C          -1.1657    4.2765   -0.0405 C.ar    1  LIG1        0.0290
     14 S          -2.1482    2.8880    0.2909 S.2     1  LIG1       -0.0859
     15 N           2.4453    1.3372   -1.2097 N.1     1  LIG1       -0.1908
     16 C           1.4739    1.8568   -0.8889 C.1     1  LIG1        0.1003
     17 H           0.8762    4.6233   -0.6788 H       1  LIG1        0.0642
     18 C          -1.7030    5.6295    0.1112 C.ar    1  LIG1        0.0439
     19 C          -1.0416    6.7542    0.5411 C.ar    1  LIG1        0.0676
     20 C          -1.8623    7.9249    0.5730 C.ar    1  LIG1       -0.0284
     21 C          -3.1381    7.6613    0.1664 C.ar    1  LIG1        0.0290
     22 S          -3.3368    6.0011   -0.2823 S.2     1  LIG1       -0.0859
     23 N           1.4401    6.7262    1.2726 N.1     1  LIG1       -0.1908
     24 C           0.3380    6.7398    0.9535 C.1     1  LIG1        0.1003
     25 H          -1.5098    8.8922    0.8987 H       1  LIG1        0.0642
     26 C          -4.2595    8.5997    0.0736 C.ar    1  LIG1        0.0433
     27 C          -4.2130    9.9379   -0.2323 C.ar    1  LIG1        0.0670
     28 C          -5.5012   10.5668   -0.2353 C.ar    1  LIG1       -0.0367
     29 C          -6.4905    9.6853    0.0606 C.ar    1  LIG1       -0.0225
     30 S          -5.8824    8.1058    0.3636 S.2     1  LIG1       -0.0948
     31 H          -7.5496    9.8740    0.1239 H       1  LIG1        0.0694
     32 N          -2.0137   11.1978   -0.7529 N.1     1  LIG1       -0.1908
     33 C          -2.9893   10.6351   -0.5310 C.1     1  LIG1        0.1003
     34 H          -5.6498   11.6124   -0.4568 H       1  LIG1        0.0636
@<TRIPOS>BOND
     1    15    16    3
     2    16    11    1
     3    32    33    3
     4    17    12    1
     5    33    27    1
     6     5     1   ar
     7     5     4   ar
     8    11    12   ar
     9    11    10   ar
    10    34    28    1
    11    12    13   ar
    12     6     1    1
    13    22    18   ar
    14    22    21   ar
    15    28    27   ar
    16    28    29   ar
    17    27    26   ar
    18     1     2   ar
    19    10     4    1
    20    10    14   ar
    21     4     3   ar
    22    13    18    1
    23    13    14   ar
    24    29    31    1
    25    29    30   ar
    26    26    21    1
    27    26    30   ar
    28    18    19   ar
    29     2     3   ar
    30     2     8    1
    31    21    20   ar
    32     3     9    1
    33     8     7    3
    34    19    20   ar
    35    19    24    1
    36    20    25    1
    37    24    23    3
