@<TRIPOS>MOLECULE
mol_data/opt/m06hf/geoms/mol2/5da5da5da-5da.out
 34 37 0 0 0
SMALL
GASTEIGER

@<TRIPOS>ATOM
      1 C          -1.9810   -1.9364    0.2303 C.ar    1  LIG1       -0.0063
      2 C          -0.6663   -1.9118   -0.1404 C.ar    1  LIG1        0.0594
      3 C          -0.1256   -0.5884   -0.2235 C.ar    1  LIG1       -0.0290
      4 C          -1.0588    0.3552    0.0966 C.ar    1  LIG1        0.0284
      5 S          -2.5830   -0.3617    0.5014 S.2     1  LIG1       -0.0948
      6 H          -2.6086   -2.8034    0.3598 H       1  LIG1        0.0706
      7 N           0.6812   -4.0604   -0.6627 N.1     1  LIG1       -0.1909
      8 C           0.0852   -3.1082   -0.4301 C.1     1  LIG1        0.0997
      9 H           0.8922   -0.3725   -0.5120 H       1  LIG1        0.0642
     10 C          -0.8768    1.8081    0.1358 C.ar    1  LIG1        0.0439
     11 C           0.2494    2.5064    0.4984 C.ar    1  LIG1        0.0676
     12 C           0.0881    3.9262    0.4403 C.ar    1  LIG1       -0.0284
     13 C          -1.1661    4.2773    0.0352 C.ar    1  LIG1        0.0290
     14 S          -2.1417    2.8867   -0.3079 S.2     1  LIG1       -0.0859
     15 N           2.4281    1.3450    1.2723 N.1     1  LIG1       -0.1908
     16 C           1.4615    1.8627    0.9341 C.1     1  LIG1        0.1003
     17 H           0.8649    4.6280    0.7057 H       1  LIG1        0.0642
     18 C          -1.7021    5.6292   -0.1294 C.ar    1  LIG1        0.0439
     19 C          -1.0348    6.7532   -0.5519 C.ar    1  LIG1        0.0676
     20 C          -1.8559    7.9231   -0.6009 C.ar    1  LIG1       -0.0284
     21 C          -3.1379    7.6594   -0.2143 C.ar    1  LIG1        0.0290
     22 S          -3.3424    6.0005    0.2363 S.2     1  LIG1       -0.0859
     23 N           1.4585    6.7255   -1.2428 N.1     1  LIG1       -0.1908
     24 C           0.3514    6.7389   -0.9418 C.1     1  LIG1        0.1003
     25 H          -1.4990    8.8898   -0.9238 H       1  LIG1        0.0642
     26 C          -4.2616    8.5970   -0.1426 C.ar    1  LIG1        0.0433
     27 C          -4.2213    9.9362    0.1598 C.ar    1  LIG1        0.0670
     28 C          -5.5100   10.5639    0.1398 C.ar    1  LIG1       -0.0367
     29 C          -6.4935    9.6805   -0.1694 C.ar    1  LIG1       -0.0225
     30 S          -5.8791    8.1007   -0.4576 S.2     1  LIG1       -0.0948
     31 H          -7.5516    9.8680   -0.2506 H       1  LIG1        0.0694
     32 N          -2.0320   11.1999    0.7122 N.1     1  LIG1       -0.1908
     33 C          -3.0033   10.6355    0.4763 C.1     1  LIG1        0.1003
     34 H          -5.6631   11.6100    0.3557 H       1  LIG1        0.0636
@<TRIPOS>BOND
     1    23    24    3
     2    24    19    1
     3    25    20    1
     4     7     8    3
     5    20    19   ar
     6    20    21   ar
     7    19    18   ar
     8     9     3    1
     9    30    29   ar
    10    30    26   ar
    11     8     2    1
    12    14    13   ar
    13    14    10   ar
    14    31    29    1
    15     3     2   ar
    16     3     4   ar
    17    21    26    1
    18    21    22   ar
    19    29    28   ar
    20    26    27   ar
    21     2     1   ar
    22    18    13    1
    23    18    22   ar
    24    13    12   ar
    25     4    10    1
    26     4     5   ar
    27    10    11   ar
    28    28    27   ar
    29    28    34    1
    30    27    33    1
    31     1     6    1
    32     1     5   ar
    33    12    11   ar
    34    12    17    1
    35    33    32    3
    36    11    16    1
    37    16    15    3
