@<TRIPOS>MOLECULE
mol_data/opt/m06hf/geoms/mol2/5da5da5da-5da-.out
 34 37 0 0 0
SMALL
GASTEIGER

@<TRIPOS>ATOM
      1 C          -2.0065   -1.8931   -0.3482 C.ar    1  LIG1       -0.0063
      2 C          -0.6505   -1.8543   -0.5100 C.ar    1  LIG1        0.0594
      3 C          -0.0979   -0.5420   -0.3547 C.ar    1  LIG1       -0.0290
      4 C          -1.0651    0.3791   -0.0723 C.ar    1  LIG1        0.0284
      5 S          -2.6369   -0.3473    0.0084 S.2     1  LIG1       -0.0948
      6 H          -2.6502   -2.7551   -0.4196 H       1  LIG1        0.0706
      7 N           0.7482   -3.9587   -1.0762 N.1     1  LIG1       -0.1909
      8 C           0.1307   -3.0256   -0.8228 C.1     1  LIG1        0.0997
      9 H           0.9534   -0.3176   -0.4588 H       1  LIG1        0.0642
     10 C          -0.8885    1.8147    0.1561 C.ar    1  LIG1        0.0439
     11 C           0.1821    2.4524    0.7356 C.ar    1  LIG1        0.0676
     12 C           0.0328    3.8724    0.8101 C.ar    1  LIG1       -0.0284
     13 C          -1.1576    4.2849    0.2857 C.ar    1  LIG1        0.0290
     14 S          -2.0814    2.9551   -0.3270 S.2     1  LIG1       -0.0859
     15 N           2.2471    1.1860    1.6436 N.1     1  LIG1       -0.1908
     16 C           1.3293    1.7488    1.2471 C.1     1  LIG1        0.1003
     17 H           0.7711    4.5282    1.2471 H       1  LIG1        0.0642
     18 C          -1.6646    5.6557    0.1963 C.ar    1  LIG1        0.0439
     19 C          -0.9451    6.8071   -0.0152 C.ar    1  LIG1        0.0676
     20 C          -1.7494    7.9895   -0.0359 C.ar    1  LIG1       -0.0284
     21 C          -3.0714    7.7074    0.1479 C.ar    1  LIG1        0.0290
     22 S          -3.3403    6.0098    0.3593 S.2     1  LIG1       -0.0859
     23 N           1.6241    6.8101   -0.3197 N.1     1  LIG1       -0.1908
     24 C           0.4834    6.8127   -0.1954 C.1     1  LIG1        0.1003
     25 H          -1.3502    8.9820   -0.1836 H       1  LIG1        0.0642
     26 C          -4.1914    8.6521    0.1732 C.ar    1  LIG1        0.0433
     27 C          -4.3366    9.8000   -0.5662 C.ar    1  LIG1        0.0670
     28 C          -5.5581   10.5004   -0.2968 C.ar    1  LIG1       -0.0367
     29 C          -6.3089    9.8589    0.6351 C.ar    1  LIG1       -0.0225
     30 S          -5.5477    8.4270    1.2070 S.2     1  LIG1       -0.0948
     31 H          -7.2702   10.1497    1.0257 H       1  LIG1        0.0694
     32 N          -2.5724   10.6091   -2.2772 N.1     1  LIG1       -0.1908
     33 C          -3.3588   10.2450   -1.5248 C.1     1  LIG1        0.1003
     34 H          -5.8354   11.4196   -0.7887 H       1  LIG1        0.0636
@<TRIPOS>BOND
     1    32    33    3
     2    33    27    1
     3     7     8    3
     4     8     2    1
     5    34    28    1
     6    27    28   ar
     7    27    26   ar
     8     2     3   ar
     9     2     1   ar
    10     9     3    1
    11     6     1    1
    12     3     4   ar
    13     1     5   ar
    14    14    10   ar
    15    14    13   ar
    16    23    24    3
    17    28    29   ar
    18    24    19    1
    19    25    20    1
    20     4     5   ar
    21     4    10    1
    22    20    19   ar
    23    20    21   ar
    24    19    18   ar
    25    21    26    1
    26    21    22   ar
    27    10    11   ar
    28    26    30   ar
    29    18    13    1
    30    18    22   ar
    31    13    12   ar
    32    29    31    1
    33    29    30   ar
    34    11    12   ar
    35    11    16    1
    36    12    17    1
    37    16    15    3
