@<TRIPOS>MOLECULE
mol_data/opt/m06hf/geoms/mol2/5da5da-.out
 18 19 0 0 0
SMALL
GASTEIGER

@<TRIPOS>ATOM
      1 C          -2.1097   -1.7858    0.0001 C.ar    1  LIG1       -0.0063
      2 C          -0.7448   -1.7940   -0.0003 C.ar    1  LIG1        0.0594
      3 C          -0.1675   -0.4832    0.0000 C.ar    1  LIG1       -0.0290
      4 C          -1.1259    0.4914    0.0007 C.ar    1  LIG1        0.0284
      5 S          -2.7202   -0.1916    0.0009 S.2     1  LIG1       -0.0948
      6 H          -2.7714   -2.6366   -0.0000 H       1  LIG1        0.0706
      7 N           0.6472   -3.9770   -0.0017 N.1     1  LIG1       -0.1909
      8 C           0.0298   -3.0104   -0.0011 C.1     1  LIG1        0.0997
      9 H           0.8966   -0.3043   -0.0002 H       1  LIG1        0.0642
     10 C          -0.9470    1.9486    0.0013 C.ar    1  LIG1        0.0432
     11 C           0.2196    2.6764    0.0015 C.ar    1  LIG1        0.0670
     12 C           0.0124    4.0962    0.0020 C.ar    1  LIG1       -0.0367
     13 C          -1.3053    4.4128    0.0022 C.ar    1  LIG1       -0.0225
     14 S          -2.3033    3.0115    0.0017 S.2     1  LIG1       -0.0948
     15 H          -1.7552    5.3918    0.0026 H       1  LIG1        0.0694
     16 N           2.5857    1.6312    0.0011 N.1     1  LIG1       -0.1908
     17 C           1.5336    2.0911    0.0013 C.1     1  LIG1        0.1003
     18 H           0.8210    4.8105    0.0023 H       1  LIG1        0.0636
@<TRIPOS>BOND
     1     7     8    3
     2     8     2    1
     3     2     3   ar
     4     2     1   ar
     5     9     3    1
     6     6     1    1
     7     3     4   ar
     8     1     5   ar
     9     4     5   ar
    10     4    10    1
    11    16    17    3
    12    17    11    1
    13    10    11   ar
    14    10    14   ar
    15    11    12   ar
    16    14    13   ar
    17    12    13   ar
    18    12    18    1
    19    13    15    1
