@<TRIPOS>MOLECULE
mol_data/opt/m06hf/geoms/mol2/5da5da-5da5da.out
 34 37 0 0 0
SMALL
GASTEIGER

@<TRIPOS>ATOM
      1 C          -1.9825   -1.9384    0.1962 C.ar    1  LIG1       -0.0063
      2 C          -0.6671   -1.9106   -0.1716 C.ar    1  LIG1        0.0594
      3 C          -0.1260   -0.5866   -0.2419 C.ar    1  LIG1       -0.0290
      4 C          -1.0597    0.3542    0.0848 C.ar    1  LIG1        0.0284
      5 S          -2.5849   -0.3660    0.4801 S.2     1  LIG1       -0.0948
      6 H          -2.6104   -2.8064    0.3167 H       1  LIG1        0.0706
      7 N           0.6812   -4.0547   -0.7105 N.1     1  LIG1       -0.1909
      8 C           0.0849   -3.1045   -0.4705 C.1     1  LIG1        0.0997
      9 H           0.8924   -0.3683   -0.5265 H       1  LIG1        0.0642
     10 C          -0.8776    1.8067    0.1373 C.ar    1  LIG1        0.0439
     11 C           0.2480    2.5016    0.5082 C.ar    1  LIG1        0.0676
     12 C           0.0870    3.9219    0.4625 C.ar    1  LIG1       -0.0284
     13 C          -1.1664    4.2767    0.0581 C.ar    1  LIG1        0.0290
     14 S          -2.1416    2.8894   -0.2993 S.2     1  LIG1       -0.0859
     15 N           2.4250    1.3331    1.2760 N.1     1  LIG1       -0.1908
     16 C           1.4592    1.8539    0.9405 C.1     1  LIG1        0.1003
     17 H           0.8633    4.6212    0.7356 H       1  LIG1        0.0642
     18 C          -1.7019    5.6302   -0.0955 C.ar    1  LIG1        0.0439
     19 C          -1.0337    6.7578   -0.5067 C.ar    1  LIG1        0.0676
     20 C          -1.8545    7.9281   -0.5468 C.ar    1  LIG1       -0.0284
     21 C          -3.1373    7.6612   -0.1651 C.ar    1  LIG1        0.0290
     22 S          -3.3429    5.9983    0.2702 S.2     1  LIG1       -0.0859
     23 N           1.4610    6.7358   -1.1928 N.1     1  LIG1       -0.1908
     24 C           0.3533    6.7467   -0.8939 C.1     1  LIG1        0.1003
     25 H          -1.4969    8.8976   -0.8603 H       1  LIG1        0.0642
     26 C          -4.2610    8.5983   -0.0873 C.ar    1  LIG1        0.0433
     27 C          -4.2211    9.9348    0.2271 C.ar    1  LIG1        0.0670
     28 C          -5.5097   10.5628    0.2103 C.ar    1  LIG1       -0.0367
     29 C          -6.4927    9.6823   -0.1088 C.ar    1  LIG1       -0.0225
     30 S          -5.8779    8.1050   -0.4099 S.2     1  LIG1       -0.0948
     31 H          -7.5507    9.8707   -0.1904 H       1  LIG1        0.0694
     32 N          -2.0328   11.1931    0.7952 N.1     1  LIG1       -0.1908
     33 C          -3.0037   10.6310    0.5522 C.1     1  LIG1        0.1003
     34 H          -5.6631   11.6069    0.4351 H       1  LIG1        0.0636
@<TRIPOS>BOND
     1    23    24    3
     2    24    19    1
     3    25    20    1
     4     7     8    3
     5    20    19   ar
     6    20    21   ar
     7     9     3    1
     8    19    18   ar
     9     8     2    1
    10    30    29   ar
    11    30    26   ar
    12    14    13   ar
    13    14    10   ar
    14     3     2   ar
    15     3     4   ar
    16    31    29    1
    17     2     1   ar
    18    21    26    1
    19    21    22   ar
    20    29    28   ar
    21    18    13    1
    22    18    22   ar
    23    26    27   ar
    24    13    12   ar
    25     4    10    1
    26     4     5   ar
    27    10    11   ar
    28     1     6    1
    29     1     5   ar
    30    28    27   ar
    31    28    34    1
    32    27    33    1
    33    12    11   ar
    34    12    17    1
    35    11    16    1
    36    33    32    3
    37    16    15    3
