@<TRIPOS>MOLECULE
mol_data/opt/m06hf/geoms/mol2/5da5da-5da.out
 26 28 0 0 0
SMALL
GASTEIGER

@<TRIPOS>ATOM
      1 C          -2.1381   -1.8468    0.0004 C.ar    1  LIG1       -0.0063
      2 C          -0.7736   -1.8882   -0.0006 C.ar    1  LIG1        0.0594
      3 C          -0.1634   -0.5926   -0.0002 C.ar    1  LIG1       -0.0290
      4 C          -1.0969    0.4064    0.0012 C.ar    1  LIG1        0.0284
      5 S          -2.7105   -0.2388    0.0020 S.2     1  LIG1       -0.0948
      6 H          -2.8200   -2.6819    0.0004 H       1  LIG1        0.0706
      7 N           0.5491   -4.1137   -0.0033 N.1     1  LIG1       -0.1909
      8 C          -0.0335   -3.1258   -0.0021 C.1     1  LIG1        0.0997
      9 H           0.9055   -0.4434   -0.0009 H       1  LIG1        0.0642
     10 C          -0.8796    1.8556    0.0019 C.ar    1  LIG1        0.0439
     11 C           0.3048    2.5547    0.0019 C.ar    1  LIG1        0.0676
     12 C           0.1438    3.9747    0.0025 C.ar    1  LIG1       -0.0284
     13 C          -1.1715    4.3429    0.0029 C.ar    1  LIG1        0.0290
     14 S          -2.2070    2.9523    0.0026 S.2     1  LIG1       -0.0859
     15 N           2.6349    1.4308    0.0009 N.1     1  LIG1       -0.1908
     16 C           1.6018    1.9313    0.0014 C.1     1  LIG1        0.1003
     17 H           0.9801    4.6567    0.0026 H       1  LIG1        0.0642
     18 C          -1.7461    5.6911    0.0035 C.ar    1  LIG1        0.0433
     19 C          -1.0979    6.9039    0.0037 C.ar    1  LIG1        0.0670
     20 C          -1.9847    8.0312    0.0041 C.ar    1  LIG1       -0.0367
     21 C          -3.2858    7.6496    0.0043 C.ar    1  LIG1       -0.0225
     22 S          -3.4537    5.9375    0.0039 S.2     1  LIG1       -0.0948
     23 H          -4.1634    8.2751    0.0047 H       1  LIG1        0.0694
     24 N           1.4744    7.1738    0.0032 N.1     1  LIG1       -0.1908
     25 C           0.3328    7.0515    0.0034 C.1     1  LIG1        0.1003
     26 H          -1.6392    9.0531    0.0043 H       1  LIG1        0.0636
@<TRIPOS>BOND
     1     7     8    3
     2     8     2    1
     3     9     3    1
     4     2     3   ar
     5     2     1   ar
     6     3     4   ar
     7     6     1    1
     8     1     5   ar
     9    15    16    3
    10     4    10    1
    11     4     5   ar
    12    16    11    1
    13    10    11   ar
    14    10    14   ar
    15    11    12   ar
    16    12    17    1
    17    12    13   ar
    18    14    13   ar
    19    13    18    1
    20    24    25    3
    21    25    19    1
    22    18    19   ar
    23    18    22   ar
    24    19    20   ar
    25    22    21   ar
    26    20    26    1
    27    20    21   ar
    28    21    23    1
