@<TRIPOS>MOLECULE
mol_data/opt/m06hf/geoms/mol2/5da5da5da-.out
 26 28 0 0 0
SMALL
GASTEIGER

@<TRIPOS>ATOM
      1 C          -2.0038   -1.8864    0.1668 C.ar    1  LIG1       -0.0063
      2 C          -0.7156   -1.8309   -0.2847 C.ar    1  LIG1        0.0594
      3 C          -0.1880   -0.5001   -0.3295 C.ar    1  LIG1       -0.0290
      4 C          -1.1041    0.4161    0.0990 C.ar    1  LIG1        0.0284
      5 S          -2.5947   -0.3340    0.5620 S.2     1  LIG1       -0.0948
      6 H          -2.6169   -2.7651    0.2866 H       1  LIG1        0.0706
      7 N           0.6045   -3.9323   -1.0224 N.1     1  LIG1       -0.1909
      8 C           0.0203   -3.0021   -0.6922 C.1     1  LIG1        0.0997
      9 H           0.8072   -0.2570   -0.6707 H       1  LIG1        0.0642
     10 C          -0.9279    1.8673    0.1960 C.ar    1  LIG1        0.0439
     11 C           0.2072    2.5546    0.5503 C.ar    1  LIG1        0.0676
     12 C           0.0441    3.9750    0.5431 C.ar    1  LIG1       -0.0284
     13 C          -1.2201    4.3391    0.1809 C.ar    1  LIG1        0.0290
     14 S          -2.2029    2.9590   -0.1780 S.2     1  LIG1       -0.0859
     15 N           2.4198    1.3798    1.1996 N.1     1  LIG1       -0.1908
     16 C           1.4358    1.8997    0.9193 C.1     1  LIG1        0.1003
     17 H           0.8300    4.6665    0.8086 H       1  LIG1        0.0642
     18 C          -1.7589    5.6959    0.0563 C.ar    1  LIG1        0.0433
     19 C          -1.0872    6.8358   -0.3131 C.ar    1  LIG1        0.0670
     20 C          -1.9187    8.0033   -0.3436 C.ar    1  LIG1       -0.0367
     21 C          -3.2011    7.7157   -0.0042 C.ar    1  LIG1       -0.0225
     22 S          -3.4134    6.0508    0.3727 S.2     1  LIG1       -0.0948
     23 H          -4.0393    8.3909    0.0524 H       1  LIG1        0.0694
     24 N           1.4310    6.8662   -0.9056 N.1     1  LIG1       -0.1908
     25 C           0.3119    6.8506   -0.6511 C.1     1  LIG1        0.1003
     26 H          -1.5564    8.9826   -0.6145 H       1  LIG1        0.0636
@<TRIPOS>BOND
     1     7     8    3
     2    24    25    3
     3     8     2    1
     4     9     3    1
     5    25    19    1
     6    26    20    1
     7    20    19   ar
     8    20    21   ar
     9     3     2   ar
    10     3     4   ar
    11    19    18   ar
    12     2     1   ar
    13    14    13   ar
    14    14    10   ar
    15    21    23    1
    16    21    22   ar
    17    18    13    1
    18    18    22   ar
    19     4    10    1
    20     4     5   ar
    21     1     6    1
    22     1     5   ar
    23    13    12   ar
    24    10    11   ar
    25    12    11   ar
    26    12    17    1
    27    11    16    1
    28    16    15    3
