@<TRIPOS>MOLECULE
mol_data/opt/m06hf/geoms/mol2/5dd.out
 11 11 0 0 0
SMALL
GASTEIGER

@<TRIPOS>ATOM
      1 C          -2.1097   -1.7101   -0.0000 C.ar    1  LIG1       -0.0057
      2 C          -0.7464   -1.6942   -0.0002 C.ar    1  LIG1        0.0761
      3 C          -0.2184   -0.3555   -0.0002 C.ar    1  LIG1        0.0761
      4 C          -1.2040    0.5866    0.0004 C.ar    1  LIG1       -0.0057
      5 S          -2.7579   -0.1275    0.0008 S.2     1  LIG1       -0.1025
      6 H          -2.7492   -2.5781   -0.0001 H       1  LIG1        0.0707
      7 H          -1.0789    1.6576    0.0006 H       1  LIG1        0.0707
      8 N           0.7029   -3.8372   -0.0012 N.1     1  LIG1       -0.1908
      9 C           0.0642   -2.8846   -0.0007 C.1     1  LIG1        0.1010
     10 N           2.3034    0.2215   -0.0009 N.1     1  LIG1       -0.1908
     11 C           1.1864   -0.0387   -0.0006 C.1     1  LIG1        0.1010
@<TRIPOS>BOND
     1     8     9    3
     2    10    11    3
     3     9     2    1
     4    11     3    1
     5     2     3   ar
     6     2     1   ar
     7     3     4   ar
     8     6     1    1
     9     1     5   ar
    10     4     7    1
    11     4     5   ar
