@<TRIPOS>MOLECULE
mol_data/opt/m06hf/geoms/mol2/5dd5dd.out
 20 21 0 0 0
SMALL
GASTEIGER

@<TRIPOS>ATOM
      1 C          -1.9309   -1.7628   -0.7517 C.ar    1  LIG1       -0.0050
      2 C          -0.7393   -1.8220   -0.0914 C.ar    1  LIG1        0.0767
      3 C          -0.2607   -0.5218    0.2880 C.ar    1  LIG1        0.0844
      4 C          -1.1096    0.4784   -0.1041 C.ar    1  LIG1        0.0458
      5 S          -2.4813   -0.1551   -0.9329 S.2     1  LIG1       -0.0935
      6 H          -2.5001   -2.5936   -1.1365 H       1  LIG1        0.0707
      7 N           0.4785   -4.0371    0.4556 N.1     1  LIG1       -0.1908
      8 C          -0.0548   -3.0521    0.2107 C.1     1  LIG1        0.1010
      9 N           1.8945   -0.0991    1.6519 N.1     1  LIG1       -0.1908
     10 C           0.9438   -0.2907    1.0399 C.1     1  LIG1        0.1016
     11 C          -0.9253    1.9184    0.1063 C.ar    1  LIG1        0.0458
     12 C           0.1568    2.6689   -0.2686 C.ar    1  LIG1        0.0844
     13 C           0.0181    4.0489    0.1053 C.ar    1  LIG1        0.0767
     14 C          -1.1608    4.2963    0.7445 C.ar    1  LIG1       -0.0050
     15 S          -2.1050    2.8819    0.9124 S.2     1  LIG1       -0.0935
     16 H          -1.5066    5.2454    1.1211 H       1  LIG1        0.0707
     17 N           2.1572    1.7088   -1.5955 N.1     1  LIG1       -0.1908
     18 C           1.2759    2.1373   -0.9998 C.1     1  LIG1        0.1016
     19 N           1.7687    5.8801   -0.4153 N.1     1  LIG1       -0.1908
     20 C           0.9982    5.0638   -0.1820 C.1     1  LIG1        0.1010
@<TRIPOS>BOND
     1    17    18    3
     2     6     1    1
     3    18    12    1
     4     5     1   ar
     5     5     4   ar
     6     1     2   ar
     7    19    20    3
     8    12    13   ar
     9    12    11   ar
    10    20    13    1
    11     4    11    1
    12     4     3   ar
    13     2     8    1
    14     2     3   ar
    15    13    14   ar
    16    11    15   ar
    17     8     7    3
    18     3    10    1
    19    14    15   ar
    20    14    16    1
    21    10     9    3
