@<TRIPOS>MOLECULE
mol_data/opt/m06hf/geoms/mol2/5dd5dd-5dd5dd.out
 38 41 0 0 0
SMALL
GASTEIGER

@<TRIPOS>ATOM
      1 C          -0.8275   -1.8752    1.5930 C.ar    1  LIG1       -0.0050
      2 C          -0.5820   -1.8966    0.2513 C.ar    1  LIG1        0.0767
      3 C          -0.4830   -0.5765   -0.3045 C.ar    1  LIG1        0.0844
      4 C          -0.6519    0.3972    0.6430 C.ar    1  LIG1        0.0458
      5 S          -0.9313   -0.2811    2.1990 S.2     1  LIG1       -0.0935
      6 H          -0.9457   -2.7267    2.2440 H       1  LIG1        0.0707
      7 N          -0.3583   -4.0731   -1.1277 N.1     1  LIG1       -0.1908
      8 C          -0.4542   -3.1061   -0.5191 C.1     1  LIG1        0.1010
      9 N          -0.1254   -0.0475   -2.8091 N.1     1  LIG1       -0.1908
     10 C          -0.2761   -0.2928   -1.6993 C.1     1  LIG1        0.1016
     11 C          -0.5975    1.8473    0.4232 C.ar    1  LIG1        0.0464
     12 C           0.4432    2.5562   -0.1172 C.ar    1  LIG1        0.0850
     13 C           0.1595    3.9581   -0.2117 C.ar    1  LIG1        0.0850
     14 C          -1.0852    4.2705    0.2676 C.ar    1  LIG1        0.0464
     15 S          -1.9185    2.8724    0.8225 S.2     1  LIG1       -0.0845
     16 N           2.6766    1.4704   -0.8341 N.1     1  LIG1       -0.1908
     17 C           1.6869    1.9567   -0.5201 C.1     1  LIG1        0.1016
     18 N           1.7677    5.7128   -1.2182 N.1     1  LIG1       -0.1908
     19 C           1.0619    4.9291   -0.7689 C.1     1  LIG1        0.1016
     20 C          -1.6835    5.6078    0.3541 C.ar    1  LIG1        0.0464
     21 C          -1.1541    6.6965    0.9961 C.ar    1  LIG1        0.0850
     22 C          -2.0020    7.8491    0.9056 C.ar    1  LIG1        0.0850
     23 C          -3.1475    7.5995    0.1960 C.ar    1  LIG1        0.0464
     24 S          -3.1931    5.9780   -0.3784 S.2     1  LIG1       -0.0845
     25 N           1.0568    6.5960    2.3298 N.1     1  LIG1       -0.1908
     26 C           0.0796    6.6540    1.7334 C.1     1  LIG1        0.1016
     27 N          -1.5281   10.1041    2.0765 N.1     1  LIG1       -0.1908
     28 C          -1.7256    9.1053    1.5491 C.1     1  LIG1        0.1016
     29 C          -4.2327    8.5444   -0.0895 C.ar    1  LIG1        0.0458
     30 C          -4.1170    9.7744   -0.6809 C.ar    1  LIG1        0.0844
     31 C          -5.3846   10.4384   -0.8015 C.ar    1  LIG1        0.0767
     32 C          -6.4115    9.6905   -0.3047 C.ar    1  LIG1       -0.0050
     33 S          -5.8676    8.1966    0.3220 S.2     1  LIG1       -0.0935
     34 H          -7.4559    9.9583   -0.2776 H       1  LIG1        0.0707
     35 N          -1.8829   10.7396   -1.5513 N.1     1  LIG1       -0.1908
     36 C          -2.8748   10.3156   -1.1629 C.1     1  LIG1        0.1016
     37 N          -5.7207   12.7675   -1.8741 N.1     1  LIG1       -0.1908
     38 C          -5.5630   11.7371   -1.3967 C.1     1  LIG1        0.1010
@<TRIPOS>BOND
     1     9    10    3
     2    37    38    3
     3    10     3    1
     4    35    36    3
     5    38    31    1
     6    18    19    3
     7    36    30    1
     8     7     8    3
     9    16    17    3
    10    31    30   ar
    11    31    32   ar
    12    19    13    1
    13    30    29   ar
    14    17    12    1
    15     8     2    1
    16    24    23   ar
    17    24    20   ar
    18    32    34    1
    19    32    33   ar
    20     3     2   ar
    21     3     4   ar
    22    13    12   ar
    23    13    14   ar
    24    12    11   ar
    25    29    23    1
    26    29    33   ar
    27    23    22   ar
    28     2     1   ar
    29    14    20    1
    30    14    15   ar
    31    20    21   ar
    32    11     4    1
    33    11    15   ar
    34     4     5   ar
    35    22    21   ar
    36    22    28    1
    37    21    26    1
    38    28    27    3
    39     1     5   ar
    40     1     6    1
    41    26    25    3
