@<TRIPOS>MOLECULE
mol_data/opt/m06hf/geoms/mol2/5dd5dd5dd5dd.out
 38 41 0 0 0
SMALL
GASTEIGER

@<TRIPOS>ATOM
      1 C          -2.1649   -1.6469   -0.9080 C.ar    1  LIG1       -0.0050
      2 C          -0.8267   -1.6047   -1.1689 C.ar    1  LIG1        0.0767
      3 C          -0.2536   -0.3216   -0.8737 C.ar    1  LIG1        0.0844
      4 C          -1.1840    0.5607   -0.3934 C.ar    1  LIG1        0.0458
      5 S          -2.7440   -0.1606   -0.2970 S.2     1  LIG1       -0.0935
      6 H          -2.8272   -2.4867   -1.0459 H       1  LIG1        0.0707
      7 N           0.5033   -3.6038   -2.1286 N.1     1  LIG1       -0.1908
      8 C          -0.0815   -2.7161   -1.6998 C.1     1  LIG1        0.1010
      9 N           2.2226    0.3040   -1.2744 N.1     1  LIG1       -0.1908
     10 C           1.1264    0.0197   -1.0939 C.1     1  LIG1        0.1016
     11 C          -0.9504    1.9493    0.0193 C.ar    1  LIG1        0.0464
     12 C          -0.0477    2.3918    0.9500 C.ar    1  LIG1        0.0850
     13 C          -0.0918    3.8142    1.1212 C.ar    1  LIG1        0.0850
     14 C          -1.0259    4.4075    0.3120 C.ar    1  LIG1        0.0464
     15 S          -1.8390    3.2524   -0.6683 S.2     1  LIG1       -0.0845
     16 N           1.4508    0.8037    2.3337 N.1     1  LIG1       -0.1908
     17 C           0.7948    1.5137    1.7170 C.1     1  LIG1        0.1016
     18 N           1.2972    5.1271    2.8604 N.1     1  LIG1       -0.1908
     19 C           0.6934    4.5365    2.0853 C.1     1  LIG1        0.1016
     20 C          -1.3485    5.8364    0.2454 C.ar    1  LIG1        0.0464
     21 C          -0.4755    6.8747    0.0484 C.ar    1  LIG1        0.0850
     22 C          -1.1388    8.1429    0.0398 C.ar    1  LIG1        0.0850
     23 C          -2.4966    8.0339    0.2212 C.ar    1  LIG1        0.0464
     24 S          -2.9630    6.3913    0.4237 S.2     1  LIG1       -0.0845
     25 N           2.0533    6.5724   -0.3869 N.1     1  LIG1       -0.1908
     26 C           0.9327    6.7082   -0.1874 C.1     1  LIG1        0.1016
     27 N           0.0845   10.3913   -0.3265 N.1     1  LIG1       -0.1908
     28 C          -0.4519    9.3896   -0.1693 C.1     1  LIG1        0.1016
     29 C          -3.4839    9.1172    0.2808 C.ar    1  LIG1        0.0458
     30 C          -4.7794    9.0909   -0.1769 C.ar    1  LIG1        0.0844
     31 C          -5.4732   10.3200    0.0711 C.ar    1  LIG1        0.0767
     32 C          -4.6858   11.2346    0.7087 C.ar    1  LIG1       -0.0050
     33 S          -3.1201   10.6320    1.0136 S.2     1  LIG1       -0.0935
     34 H          -4.9604   12.2352    1.0029 H       1  LIG1        0.0707
     35 N          -5.8475    7.0529   -1.3566 N.1     1  LIG1       -0.1908
     36 C          -5.3784    7.9644   -0.8417 C.1     1  LIG1        0.1016
     37 N          -7.9250   10.7579   -0.6229 N.1     1  LIG1       -0.1908
     38 C          -6.8378   10.5626   -0.3162 C.1     1  LIG1        0.1010
@<TRIPOS>BOND
     1     7     8    3
     2     8     2    1
     3    35    36    3
     4     9    10    3
     5     2     1   ar
     6     2     3   ar
     7    10     3    1
     8     6     1    1
     9     1     5   ar
    10     3     4   ar
    11    36    30    1
    12    15    11   ar
    13    15    14   ar
    14    37    38    3
    15     4     5   ar
    16     4    11    1
    17    25    26    3
    18    27    28    3
    19    38    31    1
    20    26    21    1
    21    30    31   ar
    22    30    29   ar
    23    28    22    1
    24    11    12   ar
    25    22    21   ar
    26    22    23   ar
    27    21    20   ar
    28    31    32   ar
    29    23    29    1
    30    23    24   ar
    31    20    14    1
    32    20    24   ar
    33    29    33   ar
    34    14    13   ar
    35    32    34    1
    36    32    33   ar
    37    12    13   ar
    38    12    17    1
    39    13    19    1
    40    17    16    3
    41    19    18    3
