@<TRIPOS>MOLECULE
mol_data/opt/m06hf/geoms/mol2/5dd5dd-.out
 20 21 0 0 0
SMALL
GASTEIGER

@<TRIPOS>ATOM
      1 C          -1.9375   -1.7649   -0.7361 C.ar    1  LIG1       -0.0050
      2 C          -0.7400   -1.8223   -0.0865 C.ar    1  LIG1        0.0767
      3 C          -0.2581   -0.5211    0.2852 C.ar    1  LIG1        0.0844
      4 C          -1.1105    0.4780   -0.1019 C.ar    1  LIG1        0.0458
      5 S          -2.4896   -0.1577   -0.9166 S.2     1  LIG1       -0.0935
      6 H          -2.5101   -2.5967   -1.1136 H       1  LIG1        0.0707
      7 N           0.4829   -4.0358    0.4553 N.1     1  LIG1       -0.1908
      8 C          -0.0527   -3.0516    0.2127 C.1     1  LIG1        0.1010
      9 N           1.9094   -0.0946    1.6283 N.1     1  LIG1       -0.1908
     10 C           0.9532   -0.2879    1.0255 C.1     1  LIG1        0.1016
     11 C          -0.9244    1.9186    0.1030 C.ar    1  LIG1        0.0458
     12 C           0.1543    2.6682   -0.2837 C.ar    1  LIG1        0.0844
     13 C           0.0189    4.0492    0.0878 C.ar    1  LIG1        0.0767
     14 C          -1.1542    4.2982    0.7370 C.ar    1  LIG1       -0.0050
     15 S          -2.0968    2.8842    0.9172 S.2     1  LIG1       -0.0935
     16 H          -1.4966    5.2483    1.1142 H       1  LIG1        0.0707
     17 N           2.1426    1.7046   -1.6261 N.1     1  LIG1       -0.1908
     18 C           1.2667    2.1347   -1.0236 C.1     1  LIG1        0.1016
     19 N           1.7645    5.8791   -0.4534 N.1     1  LIG1       -0.1908
     20 C           0.9962    5.0633   -0.2110 C.1     1  LIG1        0.1010
@<TRIPOS>BOND
     1    17    18    3
     2     6     1    1
     3    18    12    1
     4     5     1   ar
     5     5     4   ar
     6     1     2   ar
     7    19    20    3
     8    12    13   ar
     9    12    11   ar
    10    20    13    1
    11     4    11    1
    12     4     3   ar
    13     2     8    1
    14     2     3   ar
    15    13    14   ar
    16    11    15   ar
    17     8     7    3
    18     3    10    1
    19    14    15   ar
    20    14    16    1
    21    10     9    3
