@<TRIPOS>MOLECULE
mol_data/opt/m06hf/geoms/mol2/5dd5dd5dd-5dd-.out
 38 41 0 0 0
SMALL
GASTEIGER

@<TRIPOS>ATOM
      1 C          -1.9663   -1.9464    0.2446 C.ar    1  LIG1       -0.0050
      2 C          -0.7243   -1.8194    0.7941 C.ar    1  LIG1        0.0767
      3 C          -0.2203   -0.4780    0.7011 C.ar    1  LIG1        0.0844
      4 C          -1.1031    0.3631    0.0770 C.ar    1  LIG1        0.0458
      5 S          -2.5335   -0.4682   -0.3983 S.2     1  LIG1       -0.0935
      6 H          -2.5628   -2.8432    0.1882 H       1  LIG1        0.0707
      7 N           0.5366   -3.7827    1.9095 N.1     1  LIG1       -0.1908
      8 C          -0.0144   -2.9081    1.4135 C.1     1  LIG1        0.1010
      9 N           2.0488    0.2920    1.6700 N.1     1  LIG1       -0.1908
     10 C           1.0445   -0.0533    1.2380 C.1     1  LIG1        0.1016
     11 C          -0.9154    1.7926   -0.1938 C.ar    1  LIG1        0.0464
     12 C           0.1321    2.3757   -0.8578 C.ar    1  LIG1        0.0850
     13 C          -0.0034    3.8002   -0.9466 C.ar    1  LIG1        0.0850
     14 C          -1.1501    4.2534   -0.3490 C.ar    1  LIG1        0.0464
     15 S          -2.0554    2.9659    0.3400 S.2     1  LIG1       -0.0845
     16 N           2.0380    1.0200   -1.9580 N.1     1  LIG1       -0.1908
     17 C           1.2027    1.6287   -1.4615 C.1     1  LIG1        0.1016
     18 N           1.6282    5.3588   -2.2060 N.1     1  LIG1       -0.1908
     19 C           0.9159    4.6597   -1.6422 C.1     1  LIG1        0.1016
     20 C          -1.6016    5.6478   -0.2738 C.ar    1  LIG1        0.0464
     21 C          -0.9048    6.7092    0.2402 C.ar    1  LIG1        0.0850
     22 C          -1.6257    7.9425    0.1219 C.ar    1  LIG1        0.0850
     23 C          -2.8502    7.7778   -0.4706 C.ar    1  LIG1        0.0464
     24 S          -3.1316    6.1344   -0.8899 S.2     1  LIG1       -0.0845
     25 N           1.4206    6.4725    1.3426 N.1     1  LIG1       -0.1908
     26 C           0.3913    6.5866    0.8509 C.1     1  LIG1        0.1016
     27 N          -0.7196   10.2387    0.8883 N.1     1  LIG1       -0.1908
     28 C          -1.1179    9.2174    0.5526 C.1     1  LIG1        0.1016
     29 C          -3.8494    8.8217   -0.7270 C.ar    1  LIG1        0.0458
     30 C          -4.4129    9.6546    0.2019 C.ar    1  LIG1        0.0844
     31 C          -5.3446   10.5737   -0.3886 C.ar    1  LIG1        0.0767
     32 C          -5.4574   10.4002   -1.7370 C.ar    1  LIG1       -0.0050
     33 S          -4.4453    9.1474   -2.3075 S.2     1  LIG1       -0.0935
     34 H          -6.0866   10.9581   -2.4119 H       1  LIG1        0.0707
     35 N          -3.8978    9.4878    2.7292 N.1     1  LIG1       -0.1908
     36 C          -4.1275    9.5751    1.6094 C.1     1  LIG1        0.1016
     37 N          -6.6881   12.3364    0.9443 N.1     1  LIG1       -0.1908
     38 C          -6.0888   11.5556    0.3563 C.1     1  LIG1        0.1010
@<TRIPOS>BOND
     1    34    32    1
     2    33    32   ar
     3    33    29   ar
     4    18    19    3
     5    16    17    3
     6    32    31   ar
     7    19    13    1
     8    17    12    1
     9    13    12   ar
    10    13    14   ar
    11    24    23   ar
    12    24    20   ar
    13    12    11   ar
    14    29    23    1
    15    29    30   ar
    16    23    22   ar
    17     5     4   ar
    18     5     1   ar
    19    31    30   ar
    20    31    38    1
    21    14    20    1
    22    14    15   ar
    23    20    21   ar
    24    11     4    1
    25    11    15   ar
    26     4     3   ar
    27    22    21   ar
    28    22    28    1
    29     6     1    1
    30    30    36    1
    31    21    26    1
    32     1     2   ar
    33    38    37    3
    34    28    27    3
    35     3     2   ar
    36     3    10    1
    37     2     8    1
    38    26    25    3
    39    10     9    3
    40     8     7    3
    41    36    35    3
