@<TRIPOS>MOLECULE
mol_data/opt/m06hf/geoms/mol2/5dd5dd-5dd.out
 29 31 0 0 0
SMALL
GASTEIGER

@<TRIPOS>ATOM
      1 C          -1.5902   -1.7334   -1.4407 C.ar    1  LIG1       -0.0050
      2 C          -0.7909   -1.8563   -0.3420 C.ar    1  LIG1        0.0767
      3 C          -0.4167   -0.5821    0.2045 C.ar    1  LIG1        0.0844
      4 C          -0.9469    0.4608   -0.5068 C.ar    1  LIG1        0.0458
      5 S          -1.8926   -0.0987   -1.8315 S.2     1  LIG1       -0.0935
      6 H          -2.0076   -2.5339   -2.0305 H       1  LIG1        0.0707
      7 N          -0.0885   -4.1343    0.6610 N.1     1  LIG1       -0.1908
      8 C          -0.3920   -3.1217    0.2171 C.1     1  LIG1        0.1010
      9 N           1.0008   -0.2667    2.3431 N.1     1  LIG1       -0.1908
     10 C           0.3801   -0.4123    1.3901 C.1     1  LIG1        0.1016
     11 C          -0.7525    1.8906   -0.2394 C.ar    1  LIG1        0.0464
     12 C           0.4442    2.5501   -0.1443 C.ar    1  LIG1        0.0850
     13 C           0.2792    3.9447    0.1435 C.ar    1  LIG1        0.0850
     14 C          -1.0382    4.3057    0.2443 C.ar    1  LIG1        0.0464
     15 S          -2.0808    2.9573    0.0054 S.2     1  LIG1       -0.0845
     16 N           2.7291    1.3976   -0.5050 N.1     1  LIG1       -0.1908
     17 C           1.7188    1.9135   -0.3400 C.1     1  LIG1        0.1016
     18 N           2.2322    5.6004    0.4946 N.1     1  LIG1       -0.1908
     19 C           1.3702    4.8622    0.3338 C.1     1  LIG1        0.1016
     20 C          -1.5609    5.6503    0.5131 C.ar    1  LIG1        0.0458
     21 C          -1.2932    6.7879   -0.2002 C.ar    1  LIG1        0.0844
     22 C          -1.9529    7.9394    0.3486 C.ar    1  LIG1        0.0767
     23 C          -2.6959    7.6334    1.4510 C.ar    1  LIG1       -0.0050
     24 S          -2.6052    5.9736    1.8425 S.2     1  LIG1       -0.0935
     25 H          -3.2864    8.3143    2.0432 H       1  LIG1        0.0707
     26 N           0.1487    6.8119   -2.3456 N.1     1  LIG1       -0.1908
     27 C          -0.4844    6.8086   -1.3897 C.1     1  LIG1        0.1016
     28 N          -1.8084   10.3178   -0.6569 N.1     1  LIG1       -0.1908
     29 C          -1.8642    9.2626   -0.2119 C.1     1  LIG1        0.1010
@<TRIPOS>BOND
     1    26    27    3
     2     6     1    1
     3     5     1   ar
     4     5     4   ar
     5     1     2   ar
     6    27    21    1
     7    28    29    3
     8     4    11    1
     9     4     3   ar
    10    16    17    3
    11     2     3   ar
    12     2     8    1
    13    17    12    1
    14    11    12   ar
    15    11    15   ar
    16    29    22    1
    17    21    22   ar
    18    21    20   ar
    19    12    13   ar
    20    15    14   ar
    21    13    14   ar
    22    13    19    1
    23     3    10    1
    24     8     7    3
    25    14    20    1
    26    19    18    3
    27    22    23   ar
    28    20    24   ar
    29    10     9    3
    30    23    24   ar
    31    23    25    1
