@<TRIPOS>MOLECULE
mol_data/opt/m06hf/geoms/mol2/5dd5dd-5dd-.out
 29 31 0 0 0
SMALL
GASTEIGER

@<TRIPOS>ATOM
      1 C          -0.0846   -1.7138   -1.4967 C.ar    1  LIG1       -0.0050
      2 C          -1.0577   -1.5995   -0.5464 C.ar    1  LIG1        0.0767
      3 C          -1.1182   -0.2793    0.0087 C.ar    1  LIG1        0.0844
      4 C          -0.1834    0.5623   -0.5410 C.ar    1  LIG1        0.0458
      5 S           0.7568   -0.2495   -1.7307 S.2     1  LIG1       -0.0935
      6 H           0.1727   -2.5974   -2.0590 H       1  LIG1        0.0707
      7 N          -2.5904   -3.5511    0.1816 N.1     1  LIG1       -0.1908
      8 C          -1.9136   -2.6832   -0.1399 C.1     1  LIG1        0.1010
      9 N          -2.7806    0.4296    1.8580 N.1     1  LIG1       -0.1908
     10 C          -2.0427    0.1077    1.0409 C.1     1  LIG1        0.1016
     11 C           0.0304    1.9809   -0.2316 C.ar    1  LIG1        0.0464
     12 C           1.2321    2.6378   -0.1205 C.ar    1  LIG1        0.0850
     13 C           1.0704    4.0298    0.1597 C.ar    1  LIG1        0.0850
     14 C          -0.2503    4.3974    0.2529 C.ar    1  LIG1        0.0464
     15 S          -1.2896    3.0538    0.0022 S.2     1  LIG1       -0.0845
     16 N           3.5376    1.4929   -0.3641 N.1     1  LIG1       -0.1908
     17 C           2.5161    2.0030   -0.2535 C.1     1  LIG1        0.1016
     18 N           3.0531    5.6667    0.4338 N.1     1  LIG1       -0.1908
     19 C           2.1754    4.9386    0.3097 C.1     1  LIG1        0.1016
     20 C          -0.7841    5.7301    0.5570 C.ar    1  LIG1        0.0458
     21 C          -1.8774    6.3392   -0.0070 C.ar    1  LIG1        0.0844
     22 C          -2.1251    7.6378    0.5468 C.ar    1  LIG1        0.0767
     23 C          -1.2167    7.9679    1.5105 C.ar    1  LIG1       -0.0050
     24 S          -0.0690    6.7318    1.7586 S.2     1  LIG1       -0.0935
     25 H          -1.1741    8.8859    2.0750 H       1  LIG1        0.0707
     26 N          -3.3098    5.2754   -1.8786 N.1     1  LIG1       -0.1908
     27 C          -2.6755    5.7546   -1.0516 C.1     1  LIG1        0.1016
     28 N          -4.0496    9.1929   -0.2058 N.1     1  LIG1       -0.1908
     29 C          -3.1984    8.5003    0.1265 C.1     1  LIG1        0.1010
@<TRIPOS>BOND
     1     6     1    1
     2    26    27    3
     3     5     1   ar
     4     5     4   ar
     5     1     2   ar
     6    27    21    1
     7     2     8    1
     8     2     3   ar
     9     4    11    1
    10     4     3   ar
    11    16    17    3
    12    17    12    1
    13    11    12   ar
    14    11    15   ar
    15    28    29    3
    16     8     7    3
    17    12    13   ar
    18    21    22   ar
    19    21    20   ar
    20    15    14   ar
    21     3    10    1
    22    29    22    1
    23    13    14   ar
    24    13    19    1
    25    14    20    1
    26    19    18    3
    27    22    23   ar
    28    20    24   ar
    29    10     9    3
    30    23    24   ar
    31    23    25    1
