@<TRIPOS>MOLECULE
mol_data/opt/m06hf/geoms/mol2/5dd5dd-5dd-5dd-.out
 38 41 0 0 0
SMALL
GASTEIGER

@<TRIPOS>ATOM
      1 C          -2.1807   -1.6605    0.7787 C.ar    1  LIG1       -0.0050
      2 C          -0.8530   -1.6196    1.0891 C.ar    1  LIG1        0.0767
      3 C          -0.2729   -0.3310    0.8343 C.ar    1  LIG1        0.0844
      4 C          -1.1873    0.5565    0.3335 C.ar    1  LIG1        0.0458
      5 S          -2.7409   -0.1664    0.1692 S.2     1  LIG1       -0.0935
      6 H          -2.8455   -2.5036    0.8797 H       1  LIG1        0.0707
      7 N           0.4462   -3.6302    2.0668 N.1     1  LIG1       -0.1908
      8 C          -0.1249   -2.7373    1.6302 C.1     1  LIG1        0.1010
      9 N           2.1855    0.2935    1.3346 N.1     1  LIG1       -0.1908
     10 C           1.0973    0.0097    1.1100 C.1     1  LIG1        0.1016
     11 C          -0.9424    1.9516   -0.0496 C.ar    1  LIG1        0.0464
     12 C          -0.0073    2.4099   -0.9399 C.ar    1  LIG1        0.0850
     13 C          -0.0488    3.8346   -1.0913 C.ar    1  LIG1        0.0850
     14 C          -1.0134    4.4138   -0.3081 C.ar    1  LIG1        0.0464
     15 S          -1.8588    3.2424    0.6244 S.2     1  LIG1       -0.0845
     16 N           1.5448    0.8458   -2.2915 N.1     1  LIG1       -0.1908
     17 C           0.8649    1.5452   -1.6886 C.1     1  LIG1        0.1016
     18 N           1.3994    5.1764   -2.7586 N.1     1  LIG1       -0.1908
     19 C           0.7692    4.5730   -2.0151 C.1     1  LIG1        0.1016
     20 C          -1.3419    5.8409   -0.2320 C.ar    1  LIG1        0.0464
     21 C          -0.4794    6.8779    0.0123 C.ar    1  LIG1        0.0850
     22 C          -1.1459    8.1445    0.0156 C.ar    1  LIG1        0.0850
     23 C          -2.4959    8.0354   -0.2170 C.ar    1  LIG1        0.0464
     24 S          -2.9503    6.3952   -0.4609 S.2     1  LIG1       -0.0845
     25 N           2.0325    6.5742    0.5353 N.1     1  LIG1       -0.1908
     26 C           0.9196    6.7107    0.2970 C.1     1  LIG1        0.1016
     27 N           0.0573   10.3896    0.4600 N.1     1  LIG1       -0.1908
     28 C          -0.4703    9.3892    0.2683 C.1     1  LIG1        0.1016
     29 C          -3.4831    9.1174   -0.2965 C.ar    1  LIG1        0.0458
     30 C          -4.7944    9.0817    0.1131 C.ar    1  LIG1        0.0844
     31 C          -5.4818   10.3129   -0.1418 C.ar    1  LIG1        0.0767
     32 C          -4.6741   11.2386   -0.7364 C.ar    1  LIG1       -0.0050
     33 S          -3.0967   10.6439   -0.9928 S.2     1  LIG1       -0.0935
     34 H          -4.9403   12.2429   -1.0255 H       1  LIG1        0.0707
     35 N          -5.8996    7.0240    1.2223 N.1     1  LIG1       -0.1908
     36 C          -5.4144    7.9441    0.7386 C.1     1  LIG1        0.1016
     37 N          -7.9586   10.7353    0.4686 N.1     1  LIG1       -0.1908
     38 C          -6.8604   10.5469    0.1989 C.1     1  LIG1        0.1010
@<TRIPOS>BOND
     1    18    19    3
     2    16    17    3
     3    19    13    1
     4    17    12    1
     5    13    12   ar
     6    13    14   ar
     7    34    32    1
     8    33    32   ar
     9    33    29   ar
    10    12    11   ar
    11    32    31   ar
    12    24    20   ar
    13    24    23   ar
    14    14    20    1
    15    14    15   ar
    16    29    23    1
    17    29    30   ar
    18    20    21   ar
    19    23    22   ar
    20    31    30   ar
    21    31    38    1
    22    11     4    1
    23    11    15   ar
    24    21    22   ar
    25    21    26    1
    26    22    28    1
    27    30    36    1
    28     5     4   ar
    29     5     1   ar
    30    38    37    3
    31    28    27    3
    32    26    25    3
    33     4     3   ar
    34    36    35    3
    35     1     6    1
    36     1     2   ar
    37     3     2   ar
    38     3    10    1
    39     2     8    1
    40    10     9    3
    41     8     7    3
