@<TRIPOS>MOLECULE
mol_data/opt/m06hf/geoms/mol2/5dd5dd5dd-.out
 29 31 0 0 0
SMALL
GASTEIGER

@<TRIPOS>ATOM
      1 C          -1.2369   -1.3817   -1.9654 C.ar    1  LIG1       -0.0050
      2 C          -0.8770   -1.6660   -0.6807 C.ar    1  LIG1        0.0767
      3 C          -0.5547   -0.4848    0.0683 C.ar    1  LIG1        0.0844
      4 C          -0.6782    0.6536   -0.6838 C.ar    1  LIG1        0.0458
      5 S          -1.1817    0.2939   -2.2895 S.2     1  LIG1       -0.0935
      6 H          -1.5262   -2.0864   -2.7287 H       1  LIG1        0.0707
      7 N          -0.8217   -4.0643    0.2846 N.1     1  LIG1       -0.1908
      8 C          -0.8421   -2.9992   -0.1387 C.1     1  LIG1        0.1010
      9 N           0.0875   -0.4623    2.5725 N.1     1  LIG1       -0.1908
     10 C          -0.1910   -0.4802    1.4602 C.1     1  LIG1        0.1016
     11 C          -0.4150    2.0276   -0.2409 C.ar    1  LIG1        0.0464
     12 C           0.7464    2.5040    0.3093 C.ar    1  LIG1        0.0850
     13 C           0.6664    3.8984    0.6210 C.ar    1  LIG1        0.0850
     14 C          -0.5511    4.4452    0.2932 C.ar    1  LIG1        0.0464
     15 S          -1.6035    3.2582   -0.3722 S.2     1  LIG1       -0.0845
     16 N           2.8671    1.0631    0.6375 N.1     1  LIG1       -0.1908
     17 C           1.9269    1.7045    0.4974 C.1     1  LIG1        0.1016
     18 N           2.6282    5.2456    1.6309 N.1     1  LIG1       -0.1908
     19 C           1.7621    4.6441    1.1800 C.1     1  LIG1        0.1016
     20 C          -0.9871    5.8338    0.4788 C.ar    1  LIG1        0.0458
     21 C          -1.7856    6.5761   -0.3572 C.ar    1  LIG1        0.0844
     22 C          -2.0225    7.8982    0.1434 C.ar    1  LIG1        0.0767
     23 C          -1.4009    8.1143    1.3392 C.ar    1  LIG1       -0.0050
     24 S          -0.5387    6.7410    1.8697 S.2     1  LIG1       -0.0935
     25 H          -1.4116    9.0215    1.9222 H       1  LIG1        0.0707
     26 N          -2.7372    5.6920   -2.5936 N.1     1  LIG1       -0.1908
     27 C          -2.3135    6.0941   -1.6059 C.1     1  LIG1        0.1016
     28 N          -3.4406    9.6733   -1.0913 N.1     1  LIG1       -0.1908
     29 C          -2.8124    8.8856   -0.5442 C.1     1  LIG1        0.1010
@<TRIPOS>BOND
     1     6     1    1
     2    26    27    3
     3     5     1   ar
     4     5     4   ar
     5     1     2   ar
     6    27    21    1
     7    28    29    3
     8     4    11    1
     9     4     3   ar
    10     2     8    1
    11     2     3   ar
    12    29    22    1
    13    15    11   ar
    14    15    14   ar
    15    21    22   ar
    16    21    20   ar
    17    11    12   ar
    18     8     7    3
    19     3    10    1
    20    22    23   ar
    21    14    20    1
    22    14    13   ar
    23    12    17    1
    24    12    13   ar
    25    20    24   ar
    26    17    16    3
    27    13    19    1
    28    19    18    3
    29    23    24   ar
    30    23    25    1
    31    10     9    3
