@<TRIPOS>MOLECULE
mol_data/opt/m06hf/geoms/mol2/5dd5dd5dd5dd-.out
 38 41 0 0 0
SMALL
GASTEIGER

@<TRIPOS>ATOM
      1 C           0.3701   -1.9433   -0.6872 C.ar    1  LIG1       -0.0050
      2 C          -0.8484   -1.7880   -0.0921 C.ar    1  LIG1        0.0767
      3 C          -1.1588   -0.4100    0.1496 C.ar    1  LIG1        0.0844
      4 C          -0.1596    0.4351   -0.2700 C.ar    1  LIG1        0.0458
      5 S           1.1464   -0.4497   -0.9596 S.2     1  LIG1       -0.0935
      6 H           0.8423   -2.8714   -0.9679 H       1  LIG1        0.0707
      7 N          -2.4085   -3.7505    0.5401 N.1     1  LIG1       -0.1908
      8 C          -1.7175   -2.8794    0.2607 C.1     1  LIG1        0.1010
      9 N          -3.3539    0.3941    1.2544 N.1     1  LIG1       -0.1908
     10 C          -2.3790    0.0286    0.7727 C.1     1  LIG1        0.1016
     11 C          -0.1475    1.9005   -0.2050 C.ar    1  LIG1        0.0464
     12 C           0.9304    2.7233    0.0177 C.ar    1  LIG1        0.0850
     13 C           0.5804    4.1110    0.0013 C.ar    1  LIG1        0.0850
     14 C          -0.7545    4.3042   -0.2430 C.ar    1  LIG1        0.0464
     15 S          -1.5817    2.8152   -0.4559 S.2     1  LIG1       -0.0845
     16 N           3.3262    1.8605    0.4671 N.1     1  LIG1       -0.1908
     17 C           2.2649    2.2506    0.2731 C.1     1  LIG1        0.1016
     18 N           2.2478    6.0199    0.5028 N.1     1  LIG1       -0.1908
     19 C           1.5104    5.1726    0.2740 C.1     1  LIG1        0.1016
     20 C          -1.4634    5.5849   -0.3308 C.ar    1  LIG1        0.0464
     21 C          -1.1336    6.6524   -1.1251 C.ar    1  LIG1        0.0850
     22 C          -2.0541    7.7418   -0.9831 C.ar    1  LIG1        0.0850
     23 C          -3.0547    7.4672   -0.0885 C.ar    1  LIG1        0.0464
     24 S          -2.8736    5.9012    0.6008 S.2     1  LIG1       -0.0845
     25 N           0.8379    6.6046   -2.7950 N.1     1  LIG1       -0.1908
     26 C          -0.0330    6.6401   -2.0505 C.1     1  LIG1        0.1016
     27 N          -1.9457    9.9291   -2.3565 N.1     1  LIG1       -0.1908
     28 C          -1.9837    8.9605   -1.7440 C.1     1  LIG1        0.1016
     29 C          -4.1683    8.3456    0.2875 C.ar    1  LIG1        0.0458
     30 C          -4.0799    9.6218    0.7755 C.ar    1  LIG1        0.0844
     31 C          -5.3719   10.1958    1.0266 C.ar    1  LIG1        0.0767
     32 C          -6.3878    9.3364    0.7263 C.ar    1  LIG1       -0.0050
     33 S          -5.8076    7.8443    0.1307 S.2     1  LIG1       -0.0935
     34 H          -7.4455    9.5208    0.8270 H       1  LIG1        0.0707
     35 N          -1.8324   10.8040    1.2607 N.1     1  LIG1       -0.1908
     36 C          -2.8321   10.2862    1.0427 C.1     1  LIG1        0.1016
     37 N          -5.7466   12.5695    1.9814 N.1     1  LIG1       -0.1908
     38 C          -5.5758   11.5193    1.5549 C.1     1  LIG1        0.1010
@<TRIPOS>BOND
     1    25    26    3
     2    27    28    3
     3    26    21    1
     4    28    22    1
     5    21    22   ar
     6    21    20   ar
     7    22    23   ar
     8     6     1    1
     9     5     1   ar
    10     5     4   ar
    11     1     2   ar
    12    15    14   ar
    13    15    11   ar
    14    20    14    1
    15    20    24   ar
    16     4    11    1
    17     4     3   ar
    18    14    13   ar
    19    11    12   ar
    20     2     3   ar
    21     2     8    1
    22    23    29    1
    23    23    24   ar
    24    13    12   ar
    25    13    19    1
    26    12    17    1
    27    33    29   ar
    28    33    32   ar
    29     3    10    1
    30     8     7    3
    31    17    16    3
    32    19    18    3
    33    29    30   ar
    34    32    34    1
    35    32    31   ar
    36    10     9    3
    37    30    31   ar
    38    30    36    1
    39    31    38    1
    40    36    35    3
    41    38    37    3
