@<TRIPOS>MOLECULE
mol_data/opt/m06hf/geoms/mol2/5dd5dd-5dd-5dd.out
 38 41 0 0 0
SMALL
GASTEIGER

@<TRIPOS>ATOM
      1 C          -0.9580   -1.6096   -2.1498 C.ar    1  LIG1       -0.0050
      2 C          -0.7814   -1.8061   -0.8115 C.ar    1  LIG1        0.0767
      3 C          -0.6393   -0.5708   -0.0949 C.ar    1  LIG1        0.0844
      4 C          -0.7083    0.5186   -0.9220 C.ar    1  LIG1        0.0458
      5 S          -0.9436    0.0489   -2.5609 S.2     1  LIG1       -0.0935
      6 H          -1.0890   -2.3685   -2.9049 H       1  LIG1        0.0707
      7 N          -0.7405   -4.1397    0.3019 N.1     1  LIG1       -0.1908
      8 C          -0.7553   -3.1041   -0.1893 C.1     1  LIG1        0.1010
      9 N          -0.3774   -0.3580    2.4682 N.1     1  LIG1       -0.1908
     10 C          -0.4869   -0.4665    1.3320 C.1     1  LIG1        0.1016
     11 C          -0.5859    1.9240   -0.5155 C.ar    1  LIG1        0.0464
     12 C           0.4690    2.4910    0.1505 C.ar    1  LIG1        0.0850
     13 C           0.2550    3.8800    0.4288 C.ar    1  LIG1        0.0850
     14 C          -0.9513    4.3258   -0.0438 C.ar    1  LIG1        0.0464
     15 S          -1.8330    3.0675   -0.8152 S.2     1  LIG1       -0.0845
     16 N           2.6061    1.1780    0.7736 N.1     1  LIG1       -0.1908
     17 C           1.6609    1.7681    0.5043 C.1     1  LIG1        0.1016
     18 N           1.9043    5.3899    1.7241 N.1     1  LIG1       -0.1908
     19 C           1.1807    4.7138    1.1469 C.1     1  LIG1        0.1016
     20 C          -1.4743    5.6943    0.0526 C.ar    1  LIG1        0.0464
     21 C          -0.8678    6.8323   -0.4104 C.ar    1  LIG1        0.0850
     22 C          -1.6365    8.0096   -0.1350 C.ar    1  LIG1        0.0850
     23 C          -2.8069    7.7268    0.5194 C.ar    1  LIG1        0.0464
     24 S          -2.9773    6.0421    0.8115 S.2     1  LIG1       -0.0845
     25 N           1.3799    6.8104   -1.6852 N.1     1  LIG1       -0.1908
     26 C           0.3845    6.8301   -1.1172 C.1     1  LIG1        0.1016
     27 N          -0.9126   10.4149   -0.7428 N.1     1  LIG1       -0.1908
     28 C          -1.2265    9.3441   -0.4803 C.1     1  LIG1        0.1016
     29 C          -3.8384    8.6916    0.9200 C.ar    1  LIG1        0.0458
     30 C          -4.5055    9.5528    0.0899 C.ar    1  LIG1        0.0844
     31 C          -5.4412   10.3766    0.8011 C.ar    1  LIG1        0.0767
     32 C          -5.4540   10.1075    2.1383 C.ar    1  LIG1       -0.0050
     33 S          -4.3418    8.8791    2.5551 S.2     1  LIG1       -0.0935
     34 H          -6.0643   10.5832    2.8896 H       1  LIG1        0.0707
     35 N          -4.1451    9.5781   -2.4699 N.1     1  LIG1       -0.1908
     36 C          -4.3094    9.5818   -1.3351 C.1     1  LIG1        0.1016
     37 N          -6.9557   12.1477   -0.3198 N.1     1  LIG1       -0.1908
     38 C          -6.2811   11.3639    0.1747 C.1     1  LIG1        0.1010
@<TRIPOS>BOND
     1     6     1    1
     2     5     1   ar
     3     5     4   ar
     4    35    36    3
     5     1     2   ar
     6    25    26    3
     7    36    30    1
     8    26    21    1
     9     4    11    1
    10     4     3   ar
    11    15    11   ar
    12    15    14   ar
    13     2     8    1
    14     2     3   ar
    15    27    28    3
    16    11    12   ar
    17    28    22    1
    18    21    22   ar
    19    21    20   ar
    20    37    38    3
    21     8     7    3
    22    22    23   ar
    23     3    10    1
    24    14    20    1
    25    14    13   ar
    26    20    24   ar
    27    30    31   ar
    28    30    29   ar
    29    12    13   ar
    30    12    17    1
    31    38    31    1
    32    13    19    1
    33    17    16    3
    34    23    24   ar
    35    23    29    1
    36    31    32   ar
    37    29    33   ar
    38    19    18    3
    39    10     9    3
    40    32    33   ar
    41    32    34    1
