@<TRIPOS>MOLECULE
mol_data/opt/m06hf/geoms/mol2/5dd5dd5dd.out
 29 31 0 0 0
SMALL
GASTEIGER

@<TRIPOS>ATOM
      1 C          -1.8395   -1.9305   -0.4708 C.ar    1  LIG1       -0.0050
      2 C          -0.7241   -1.8324    0.3079 C.ar    1  LIG1        0.0767
      3 C          -0.2600   -0.4788    0.4304 C.ar    1  LIG1        0.0844
      4 C          -1.0427    0.4008   -0.2692 C.ar    1  LIG1        0.0458
      5 S          -2.3333   -0.4087   -1.0716 S.2     1  LIG1       -0.0935
      6 H          -2.3821   -2.8295   -0.7164 H       1  LIG1        0.0707
      7 N           0.3852   -3.8683    1.4527 N.1     1  LIG1       -0.1908
      8 C          -0.0993   -2.9611    0.9465 C.1     1  LIG1        0.1010
      9 N           1.7551    0.2377    1.8819 N.1     1  LIG1       -0.1908
     10 C           0.8652   -0.0830    1.2340 C.1     1  LIG1        0.1016
     11 C          -0.8634    1.8531   -0.3729 C.ar    1  LIG1        0.0464
     12 C           0.2670    2.5195   -0.7679 C.ar    1  LIG1        0.0850
     13 C           0.0919    3.9427   -0.7646 C.ar    1  LIG1        0.0850
     14 C          -1.1660    4.3134   -0.3672 C.ar    1  LIG1        0.0464
     15 S          -2.1323    2.9449    0.0229 S.2     1  LIG1       -0.0845
     16 N           2.4084    1.3162   -1.5703 N.1     1  LIG1       -0.1908
     17 C           1.4653    1.8567   -1.2064 C.1     1  LIG1        0.1016
     18 N           1.8774    5.6327   -1.5603 N.1     1  LIG1       -0.1908
     19 C           1.0936    4.8782   -1.1994 C.1     1  LIG1        0.1016
     20 C          -1.6919    5.6784   -0.2569 C.ar    1  LIG1        0.0458
     21 C          -1.1453    6.7183    0.4471 C.ar    1  LIG1        0.0844
     22 C          -1.9237    7.9196    0.3306 C.ar    1  LIG1        0.0767
     23 C          -3.0300    7.7481   -0.4483 C.ar    1  LIG1       -0.0050
     24 S          -3.1407    6.1547   -1.0562 S.2     1  LIG1       -0.0935
     25 H          -3.7745    8.4899   -0.6900 H       1  LIG1        0.0707
     26 N           0.9843    6.5050    1.8964 N.1     1  LIG1       -0.1908
     27 C           0.0427    6.6033    1.2496 C.1     1  LIG1        0.1016
     28 N          -1.3401   10.1584    1.4854 N.1     1  LIG1       -0.1908
     29 C          -1.5906    9.1632    0.9747 C.1     1  LIG1        0.1010
@<TRIPOS>BOND
     1    16    17    3
     2    18    19    3
     3    17    12    1
     4    19    13    1
     5     5     1   ar
     6     5     4   ar
     7    24    23   ar
     8    24    20   ar
     9    12    13   ar
    10    12    11   ar
    11    13    14   ar
    12     6     1    1
    13    25    23    1
    14     1     2   ar
    15    23    22   ar
    16    11     4    1
    17    11    15   ar
    18    14    20    1
    19    14    15   ar
    20     4     3   ar
    21    20    21   ar
    22     2     3   ar
    23     2     8    1
    24    22    21   ar
    25    22    29    1
    26     3    10    1
    27    21    27    1
    28     8     7    3
    29    29    28    3
    30    10     9    3
    31    27    26    3
