@<TRIPOS>MOLECULE
mol_data/opt/m06hf/geoms/mol2/5dd5dd-5dd5dd-.out
 38 41 0 0 0
SMALL
GASTEIGER

@<TRIPOS>ATOM
      1 C          -1.7648   -2.0398    0.3574 C.ar    1  LIG1       -0.0050
      2 C          -0.5352   -1.9208   -0.2207 C.ar    1  LIG1        0.0767
      3 C          -0.1041   -0.5538   -0.3104 C.ar    1  LIG1        0.0844
      4 C          -1.0254    0.3138    0.2133 C.ar    1  LIG1        0.0458
      5 S          -2.4073   -0.5233    0.8093 S.2     1  LIG1       -0.0935
      6 H          -2.3106   -2.9520    0.5396 H       1  LIG1        0.0707
      7 N           0.8353   -3.9375   -1.0804 N.1     1  LIG1       -0.1908
      8 C           0.2326   -3.0403   -0.6991 C.1     1  LIG1        0.1010
      9 N           2.1022    0.1983   -1.4270 N.1     1  LIG1       -0.1908
     10 C           1.1277   -0.1378   -0.9252 C.1     1  LIG1        0.1016
     11 C          -0.9074    1.7736    0.2962 C.ar    1  LIG1        0.0464
     12 C           0.1208    2.4859    0.8560 C.ar    1  LIG1        0.0850
     13 C          -0.0793    3.9024    0.7615 C.ar    1  LIG1        0.0850
     14 C          -1.2542    4.2224    0.1335 C.ar    1  LIG1        0.0464
     15 S          -2.1098    2.8139   -0.3603 S.2     1  LIG1       -0.0845
     16 N           2.1126    1.3761    2.0717 N.1     1  LIG1       -0.1908
     17 C           1.2369    1.8747    1.5255 C.1     1  LIG1        0.1016
     18 N           1.5133    5.6679    1.7737 N.1     1  LIG1       -0.1908
     19 C           0.8151    4.8799    1.3202 C.1     1  LIG1        0.1016
     20 C          -1.7730    5.5688   -0.1301 C.ar    1  LIG1        0.0464
     21 C          -1.1220    6.5897   -0.7712 C.ar    1  LIG1        0.0850
     22 C          -1.9224    7.7758   -0.8614 C.ar    1  LIG1        0.0850
     23 C          -3.1559    7.6199   -0.2853 C.ar    1  LIG1        0.0464
     24 S          -3.3449    6.0454    0.3813 S.2     1  LIG1       -0.0845
     25 N           1.2299    6.3385   -1.8120 N.1     1  LIG1       -0.1908
     26 C           0.1896    6.4592   -1.3459 C.1     1  LIG1        0.1016
     27 N          -1.2003    9.9275   -2.0968 N.1     1  LIG1       -0.1908
     28 C          -1.5105    8.9736   -1.5419 C.1     1  LIG1        0.1016
     29 C          -4.2193    8.6261   -0.1938 C.ar    1  LIG1        0.0458
     30 C          -4.1087    9.8899    0.3224 C.ar    1  LIG1        0.0844
     31 C          -5.3448   10.6169    0.2448 C.ar    1  LIG1        0.0767
     32 C          -6.3454    9.8797   -0.3172 C.ar    1  LIG1       -0.0050
     33 S          -5.8138    8.3206   -0.7682 S.2     1  LIG1       -0.0935
     34 H          -7.3636   10.1915   -0.4881 H       1  LIG1        0.0707
     35 N          -1.9520   10.8126    1.4075 N.1     1  LIG1       -0.1908
     36 C          -2.9073   10.4079    0.9197 C.1     1  LIG1        0.1016
     37 N          -5.6651   13.0368    1.0969 N.1     1  LIG1       -0.1908
     38 C          -5.5174   11.9649    0.7189 C.1     1  LIG1        0.1010
@<TRIPOS>BOND
     1    27    28    3
     2    25    26    3
     3    28    22    1
     4     9    10    3
     5    26    21    1
     6     7     8    3
     7    10     3    1
     8    22    21   ar
     9    22    23   ar
    10    21    20   ar
    11    33    32   ar
    12    33    29   ar
    13     8     2    1
    14    34    32    1
    15    15    14   ar
    16    15    11   ar
    17    32    31   ar
    18     3     2   ar
    19     3     4   ar
    20    23    29    1
    21    23    24   ar
    22     2     1   ar
    23    29    30   ar
    24    20    14    1
    25    20    24   ar
    26    14    13   ar
    27     4    11    1
    28     4     5   ar
    29    31    30   ar
    30    31    38    1
    31    11    12   ar
    32    30    36    1
    33     1     6    1
    34     1     5   ar
    35    38    37    3
    36    13    12   ar
    37    13    19    1
    38    12    17    1
    39    36    35    3
    40    19    18    3
    41    17    16    3
