@<TRIPOS>MOLECULE
mol_data/opt/m06hf/geoms/mol2/5de.out
 12 12 0 0 0
SMALL
GASTEIGER

@<TRIPOS>ATOM
      1 C          -2.1218   -1.7131    0.0002 C.ar    1  LIG1       -0.0057
      2 C          -0.7595   -1.6894   -0.0003 C.ar    1  LIG1        0.0741
      3 C          -0.2214   -0.3497   -0.0003 C.ar    1  LIG1        0.0490
      4 C          -1.2164    0.5834    0.0003 C.ar    1  LIG1       -0.0077
      5 S          -2.7743   -0.1309    0.0009 S.2     1  LIG1       -0.1025
      6 H          -2.7593   -2.5821    0.0002 H       1  LIG1        0.0707
      7 H          -1.0973    1.6543    0.0004 H       1  LIG1        0.0706
      8 N           0.7111   -3.8183   -0.0013 N.1     1  LIG1       -0.1908
      9 C           0.0590   -2.8747   -0.0009 C.1     1  LIG1        0.1009
     10 C           1.1820   -0.0505   -0.0008 C.1     1  LIG1       -0.0678
     11 C           2.3593    0.1827   -0.0012 C.1     1  LIG1       -0.1139
     12 H           3.4061    0.3815   -0.0016 H       1  LIG1        0.1232
@<TRIPOS>BOND
     1    12    11    1
     2     8     9    3
     3    11    10    3
     4     9     2    1
     5    10     3    1
     6     2     3   ar
     7     2     1   ar
     8     3     4   ar
     9     1     6    1
    10     1     5   ar
    11     4     7    1
    12     4     5   ar
