@<TRIPOS>MOLECULE
mol_data/opt/m06hf/geoms/mol2/5de5de.out
 22 23 0 0 0
SMALL
GASTEIGER

@<TRIPOS>ATOM
      1 C          -2.0211   -1.7260    0.7259 C.ar    1  LIG1       -0.0051
      2 C          -0.7500   -1.8132    0.2441 C.ar    1  LIG1        0.0747
      3 C          -0.1982   -0.5344   -0.1283 C.ar    1  LIG1        0.0573
      4 C          -1.0922    0.4798    0.0993 C.ar    1  LIG1        0.0438
      5 S          -2.5774   -0.1104    0.7547 S.2     1  LIG1       -0.0935
      6 H          -2.6446   -2.5375    1.0647 H       1  LIG1        0.0707
      7 N           0.5230   -4.0503   -0.0160 N.1     1  LIG1       -0.1908
      8 C          -0.0368   -3.0562    0.1014 C.1     1  LIG1        0.1009
      9 C           1.1076   -0.3667   -0.6899 C.1     1  LIG1       -0.0672
     10 C           2.2084   -0.2422   -1.1515 C.1     1  LIG1       -0.1138
     11 H           3.1917   -0.1301   -1.5471 H       1  LIG1        0.1232
     12 C          -0.8895    1.9089   -0.1547 C.ar    1  LIG1        0.0457
     13 C           0.1474    2.6945    0.2717 C.ar    1  LIG1        0.0824
     14 C           0.0384    4.0619   -0.1725 C.ar    1  LIG1        0.0496
     15 C          -1.0889    4.2584   -0.9152 C.ar    1  LIG1       -0.0070
     16 S          -2.0064    2.8229   -1.0982 S.2     1  LIG1       -0.0935
     17 H          -1.4130    5.1838   -1.3620 H       1  LIG1        0.0706
     18 N           2.0536    1.8696    1.8117 N.1     1  LIG1       -0.1908
     19 C           1.2097    2.2273    1.1221 C.1     1  LIG1        0.1015
     20 C           0.9966    5.0808    0.1483 C.1     1  LIG1       -0.0678
     21 C           1.8085    5.9203    0.4257 C.1     1  LIG1       -0.1139
     22 H           2.5322    6.6616    0.6766 H       1  LIG1        0.1232
@<TRIPOS>BOND
     1    11    10    1
     2    17    15    1
     3    10     9    3
     4    16    15   ar
     5    16    12   ar
     6    15    14   ar
     7     9     3    1
     8    14    20    1
     9    14    13   ar
    10    12     4    1
    11    12    13   ar
    12     3     4   ar
    13     3     2   ar
    14     7     8    3
    15     4     5   ar
    16     8     2    1
    17    20    21    3
    18     2     1   ar
    19    13    19    1
    20    21    22    1
    21     1     5   ar
    22     1     6    1
    23    19    18    3
