@<TRIPOS>MOLECULE
mol_data/opt/m06hf/geoms/mol2/5de5de-5de-5de.out
 42 45 0 0 0
SMALL
GASTEIGER

@<TRIPOS>ATOM
      1 C          -1.8350   -2.0192    0.3307 C.ar    1  LIG1       -0.0051
      2 C          -0.5821   -1.9215   -0.1967 C.ar    1  LIG1        0.0747
      3 C          -0.0995   -0.5650   -0.2575 C.ar    1  LIG1        0.0573
      4 C          -1.0242    0.3140    0.2449 C.ar    1  LIG1        0.0438
      5 S          -2.4549   -0.4914    0.7777 S.2     1  LIG1       -0.0935
      6 H          -2.4098   -2.9193    0.4794 H       1  LIG1        0.0707
      7 N           0.7661   -3.9643   -1.0331 N.1     1  LIG1       -0.1908
      8 C           0.1735   -3.0557   -0.6615 C.1     1  LIG1        0.1009
      9 C           1.1698   -0.1935   -0.8048 C.1     1  LIG1       -0.0672
     10 C           2.2376    0.1117   -1.2607 C.1     1  LIG1       -0.1138
     11 H           3.1901    0.3837   -1.6554 H       1  LIG1        0.1232
     12 C          -0.8877    1.7697    0.3395 C.ar    1  LIG1        0.0463
     13 C           0.1394    2.4769    0.9050 C.ar    1  LIG1        0.0830
     14 C          -0.0335    3.9026    0.8105 C.ar    1  LIG1        0.0579
     15 C          -1.1999    4.2262    0.1656 C.ar    1  LIG1        0.0444
     16 S          -2.0730    2.8232   -0.3300 S.2     1  LIG1       -0.0846
     17 N           2.1332    1.3952    2.1443 N.1     1  LIG1       -0.1908
     18 C           1.2507    1.8691    1.5864 C.1     1  LIG1        0.1016
     19 C           0.8801    4.8519    1.3693 C.1     1  LIG1       -0.0672
     20 C           1.6501    5.6440    1.8388 C.1     1  LIG1       -0.1138
     21 H           2.3375    6.3504    2.2459 H       1  LIG1        0.1232
     22 C          -1.7095    5.5719   -0.1063 C.ar    1  LIG1        0.0463
     23 C          -1.0441    6.6115   -0.6995 C.ar    1  LIG1        0.0830
     24 C          -1.8402    7.8053   -0.8097 C.ar    1  LIG1        0.0579
     25 C          -3.0956    7.6243   -0.2880 C.ar    1  LIG1        0.0444
     26 S          -3.3070    6.0330    0.3415 S.2     1  LIG1       -0.0846
     27 N           1.3521    6.4449   -1.6556 N.1     1  LIG1       -0.1908
     28 C           0.2916    6.5144   -1.2245 C.1     1  LIG1        0.1016
     29 C          -1.3796    9.0066   -1.4367 C.1     1  LIG1       -0.0672
     30 C          -0.9807   10.0079   -1.9644 C.1     1  LIG1       -0.1138
     31 H          -0.6229   10.9018   -2.4223 H       1  LIG1        0.1232
     32 C          -4.1796    8.6086   -0.2338 C.ar    1  LIG1        0.0457
     33 C          -4.1237    9.8861    0.2545 C.ar    1  LIG1        0.0824
     34 C          -5.3776   10.5875    0.1391 C.ar    1  LIG1        0.0496
     35 C          -6.3394    9.8034   -0.4280 C.ar    1  LIG1       -0.0070
     36 S          -5.7533    8.2466   -0.8353 S.2     1  LIG1       -0.0935
     37 H          -7.3631   10.0776   -0.6245 H       1  LIG1        0.0706
     38 N          -2.0413   10.9391    1.3689 N.1     1  LIG1       -0.1908
     39 C          -2.9583   10.4649    0.8684 C.1     1  LIG1        0.1015
     40 C          -5.5768   11.9367    0.5840 C.1     1  LIG1       -0.0678
     41 C          -5.7246   13.0654    0.9640 C.1     1  LIG1       -0.1139
     42 H          -5.8493   14.0673    1.3056 H       1  LIG1        0.1232
@<TRIPOS>BOND
     1    31    30    1
     2    30    29    3
     3    27    28    3
     4    11    10    1
     5    29    24    1
     6    10     9    3
     7    28    23    1
     8     7     8    3
     9    36    35   ar
    10    36    32   ar
    11    24    23   ar
    12    24    25   ar
    13     9     3    1
    14    23    22   ar
    15     8     2    1
    16    37    35    1
    17    35    34   ar
    18    16    15   ar
    19    16    12   ar
    20    25    32    1
    21    25    26   ar
    22     3     2   ar
    23     3     4   ar
    24    32    33   ar
    25     2     1   ar
    26    22    15    1
    27    22    26   ar
    28    34    33   ar
    29    34    40    1
    30    15    14   ar
    31     4    12    1
    32     4     5   ar
    33    33    39    1
    34     1     6    1
    35     1     5   ar
    36    12    13   ar
    37    40    41    3
    38    14    13   ar
    39    14    19    1
    40    39    38    3
    41    13    18    1
    42    41    42    1
    43    19    20    3
    44    18    17    3
    45    20    21    1
