@<TRIPOS>MOLECULE
mol_data/opt/m06hf/geoms/mol2/5de5de5de-.out
 32 34 0 0 0
SMALL
GASTEIGER

@<TRIPOS>ATOM
      1 C          -1.7081   -1.6823   -1.5313 C.ar    1  LIG1       -0.0051
      2 C          -0.7681   -1.8350   -0.5558 C.ar    1  LIG1        0.0747
      3 C          -0.3049   -0.5807   -0.0183 C.ar    1  LIG1        0.0573
      4 C          -0.9253    0.4799   -0.6265 C.ar    1  LIG1        0.0438
      5 S          -2.0494   -0.0355   -1.8298 S.2     1  LIG1       -0.0935
      6 H          -2.2060   -2.4645   -2.0813 H       1  LIG1        0.0707
      7 N           0.0507   -4.1442    0.2748 N.1     1  LIG1       -0.1908
      8 C          -0.3047   -3.1179   -0.0937 C.1     1  LIG1        0.1009
      9 C           0.6603   -0.4733    1.0334 C.1     1  LIG1       -0.0672
     10 C           1.4779   -0.3984    1.9089 C.1     1  LIG1       -0.1138
     11 H           2.2155   -0.3325    2.6759 H       1  LIG1        0.1232
     12 C          -0.7069    1.9023   -0.3473 C.ar    1  LIG1        0.0463
     13 C           0.4846    2.5760   -0.3383 C.ar    1  LIG1        0.0830
     14 C           0.3471    3.9696   -0.0054 C.ar    1  LIG1        0.0579
     15 C          -0.9634    4.3097    0.2110 C.ar    1  LIG1        0.0444
     16 S          -2.0173    2.9553    0.0309 S.2     1  LIG1       -0.0846
     17 N           2.7657    1.5062   -0.9167 N.1     1  LIG1       -0.1908
     18 C           1.7506    1.9725   -0.6575 C.1     1  LIG1        0.1016
     19 C           1.4561    4.8684    0.0984 C.1     1  LIG1       -0.0672
     20 C           2.3987    5.6073    0.1763 C.1     1  LIG1       -0.1138
     21 H           3.2369    6.2637    0.2321 H       1  LIG1        0.1232
     22 C          -1.4806    5.6340    0.5680 C.ar    1  LIG1        0.0457
     23 C          -1.2505    6.8197   -0.0763 C.ar    1  LIG1        0.0824
     24 C          -1.8946    7.9404    0.5613 C.ar    1  LIG1        0.0496
     25 C          -2.5955    7.5520    1.6660 C.ar    1  LIG1       -0.0070
     26 S          -2.4798    5.8680    1.9513 S.2     1  LIG1       -0.0935
     27 H          -3.1713    8.1862    2.3198 H       1  LIG1        0.0706
     28 N           0.1026    7.0521   -2.2678 N.1     1  LIG1       -0.1908
     29 C          -0.4901    6.9406   -1.2918 C.1     1  LIG1        0.1015
     30 C          -1.8105    9.2875    0.0744 C.1     1  LIG1       -0.0678
     31 C          -1.7271   10.4076   -0.3483 C.1     1  LIG1       -0.1139
     32 H          -1.6486   11.3997   -0.7296 H       1  LIG1        0.1232
@<TRIPOS>BOND
     1    28    29    3
     2     6     1    1
     3     5     1   ar
     4     5     4   ar
     5     1     2   ar
     6    29    23    1
     7    17    18    3
     8    32    31    1
     9    18    13    1
    10     4    12    1
    11     4     3   ar
    12     2     8    1
    13     2     3   ar
    14    31    30    3
    15    12    13   ar
    16    12    16   ar
    17    13    14   ar
    18     8     7    3
    19    23    24   ar
    20    23    22   ar
    21     3     9    1
    22    14    19    1
    23    14    15   ar
    24    16    15   ar
    25    30    24    1
    26    19    20    3
    27    20    21    1
    28    15    22    1
    29    24    25   ar
    30    22    26   ar
    31     9    10    3
    32    25    26   ar
    33    25    27    1
    34    10    11    1
