@<TRIPOS>MOLECULE
mol_data/opt/m06hf/geoms/mol2/5de5de5de.out
 32 34 0 0 0
SMALL
GASTEIGER

@<TRIPOS>ATOM
      1 C          -1.7396   -1.6800    1.5103 C.ar    1  LIG1       -0.0051
      2 C          -0.7783   -1.8341    0.5560 C.ar    1  LIG1        0.0747
      3 C          -0.3039   -0.5807    0.0264 C.ar    1  LIG1        0.0573
      4 C          -0.9379    0.4809    0.6188 C.ar    1  LIG1        0.0438
      5 S          -2.0880   -0.0328    1.7980 S.2     1  LIG1       -0.0935
      6 H          -2.2492   -2.4613    2.0507 H       1  LIG1        0.0707
      7 N           0.0594   -4.1445   -0.2520 N.1     1  LIG1       -0.1908
      8 C          -0.3043   -3.1177    0.1066 C.1     1  LIG1        0.1009
      9 C           0.6842   -0.4748   -1.0040 C.1     1  LIG1       -0.0672
     10 C           1.5209   -0.4012   -1.8614 C.1     1  LIG1       -0.1138
     11 H           2.2752   -0.3365   -2.6121 H       1  LIG1        0.1232
     12 C          -0.7139    1.9028    0.3418 C.ar    1  LIG1        0.0463
     13 C           0.4773    2.5770    0.3577 C.ar    1  LIG1        0.0830
     14 C           0.3466    3.9699    0.0192 C.ar    1  LIG1        0.0579
     15 C          -0.9589    4.3091   -0.2266 C.ar    1  LIG1        0.0444
     16 S          -2.0160    2.9545   -0.0673 S.2     1  LIG1       -0.0846
     17 N           2.7455    1.5093    0.9882 N.1     1  LIG1       -0.1908
     18 C           1.7361    1.9746    0.7059 C.1     1  LIG1        0.1016
     19 C           1.4573    4.8690   -0.0619 C.1     1  LIG1       -0.0672
     20 C           2.4011    5.6081   -0.1204 C.1     1  LIG1       -0.1138
     21 H           3.2400    6.2647   -0.1590 H       1  LIG1        0.1232
     22 C          -1.4686    5.6325   -0.5974 C.ar    1  LIG1        0.0457
     23 C          -1.2532    6.8195    0.0495 C.ar    1  LIG1        0.0824
     24 C          -1.8835    7.9387   -0.6043 C.ar    1  LIG1        0.0496
     25 C          -2.5598    7.5480   -1.7234 C.ar    1  LIG1       -0.0070
     26 S          -2.4373    5.8634   -2.0028 S.2     1  LIG1       -0.0935
     27 H          -3.1213    8.1806   -2.3910 H       1  LIG1        0.0706
     28 N           0.0511    7.0566    2.2698 N.1     1  LIG1       -0.1908
     29 C          -0.5199    6.9430    1.2813 C.1     1  LIG1        0.1015
     30 C          -1.8107    9.2868   -0.1182 C.1     1  LIG1       -0.0678
     31 C          -1.7370   10.4077    0.3042 C.1     1  LIG1       -0.1139
     32 H          -1.6673   11.4005    0.6852 H       1  LIG1        0.1232
@<TRIPOS>BOND
     1    11    10    1
     2    27    25    1
     3    26    25   ar
     4    26    22   ar
     5    10     9    3
     6    25    24   ar
     7     9     3    1
     8    24    30    1
     9    24    23   ar
    10    22    15    1
    11    22    23   ar
    12     7     8    3
    13    15    16   ar
    14    15    14   ar
    15    21    20    1
    16    20    19    3
    17    30    31    3
    18    16    12   ar
    19    19    14    1
    20    14    13   ar
    21     3     2   ar
    22     3     4   ar
    23    23    29    1
    24     8     2    1
    25    31    32    1
    26    12    13   ar
    27    12     4    1
    28    13    18    1
    29     2     1   ar
    30     4     5   ar
    31    18    17    3
    32    29    28    3
    33     1     5   ar
    34     1     6    1
