@<TRIPOS>MOLECULE
mol_data/opt/m06hf/geoms/mol2/5de5de-5de.out
 32 34 0 0 0
SMALL
GASTEIGER

@<TRIPOS>ATOM
      1 C          -1.8877   -1.9163    0.5288 C.ar    1  LIG1       -0.0051
      2 C          -0.7579   -1.8347   -0.2291 C.ar    1  LIG1        0.0747
      3 C          -0.2484   -0.4913   -0.3410 C.ar    1  LIG1        0.0573
      4 C          -1.0271    0.3953    0.3577 C.ar    1  LIG1        0.0438
      5 S          -2.3559   -0.3872    1.1327 S.2     1  LIG1       -0.0935
      6 H          -2.4544   -2.8044    0.7579 H       1  LIG1        0.0707
      7 N           0.3226   -3.8887   -1.3716 N.1     1  LIG1       -0.1908
      8 C          -0.1490   -2.9736   -0.8663 C.1     1  LIG1        0.1009
      9 C           0.9029   -0.1363   -1.1138 C.1     1  LIG1       -0.0672
     10 C           1.8731    0.1538   -1.7582 C.1     1  LIG1       -0.1138
     11 H           2.7403    0.4139   -2.3213 H       1  LIG1        0.1232
     12 C          -0.8313    1.8432    0.4666 C.ar    1  LIG1        0.0463
     13 C           0.3086    2.5095    0.8300 C.ar    1  LIG1        0.0830
     14 C           0.1556    3.9407    0.8233 C.ar    1  LIG1        0.0579
     15 C          -1.1112    4.3105    0.4501 C.ar    1  LIG1        0.0444
     16 S          -2.1013    2.9444    0.0928 S.2     1  LIG1       -0.0846
     17 N           2.4912    1.3546    1.5955 N.1     1  LIG1       -0.1908
     18 C           1.5217    1.8585    1.2470 C.1     1  LIG1        0.1016
     19 C           1.1929    4.8495    1.2063 C.1     1  LIG1       -0.0672
     20 C           2.0728    5.6023    1.5218 C.1     1  LIG1       -0.1138
     21 H           2.8596    6.2707    1.7879 H       1  LIG1        0.1232
     22 C          -1.6396    5.6735    0.3462 C.ar    1  LIG1        0.0457
     23 C          -1.1034    6.7300   -0.3405 C.ar    1  LIG1        0.0824
     24 C          -1.8850    7.9350   -0.2174 C.ar    1  LIG1        0.0496
     25 C          -2.9918    7.7372    0.5553 C.ar    1  LIG1       -0.0070
     26 S          -3.0957    6.1327    1.1446 S.2     1  LIG1       -0.0935
     27 H          -3.7447    8.4676    0.8027 H       1  LIG1        0.0706
     28 N           1.0233    6.5947   -1.8055 N.1     1  LIG1       -0.1908
     29 C           0.0845    6.6465   -1.1481 C.1     1  LIG1        0.1015
     30 C          -1.5371    9.1766   -0.8466 C.1     1  LIG1       -0.0678
     31 C          -1.2302   10.2071   -1.3797 C.1     1  LIG1       -0.1139
     32 H          -0.9534   11.1193   -1.8561 H       1  LIG1        0.1232
@<TRIPOS>BOND
     1    11    10    1
     2    32    31    1
     3    28    29    3
     4    10     9    3
     5    31    30    3
     6     7     8    3
     7    29    23    1
     8     9     3    1
     9     8     2    1
    10    30    24    1
    11     3     2   ar
    12     3     4   ar
    13    23    24   ar
    14    23    22   ar
    15     2     1   ar
    16    24    25   ar
    17    16    15   ar
    18    16    12   ar
    19    22    15    1
    20    22    26   ar
    21     4    12    1
    22     4     5   ar
    23    15    14   ar
    24    12    13   ar
    25     1     6    1
    26     1     5   ar
    27    25    27    1
    28    25    26   ar
    29    14    13   ar
    30    14    19    1
    31    13    18    1
    32    19    20    3
    33    18    17    3
    34    20    21    1
