@<TRIPOS>MOLECULE
mol_data/opt/m06hf/geoms/mol2/5de5de-5de5de.out
 42 45 0 0 0
SMALL
GASTEIGER

@<TRIPOS>ATOM
      1 C          -1.8355   -2.0189   -0.3263 C.ar    1  LIG1       -0.0051
      2 C          -0.5844   -1.9219    0.2055 C.ar    1  LIG1        0.0747
      3 C          -0.1016   -0.5656    0.2689 C.ar    1  LIG1        0.0573
      4 C          -1.0245    0.3140   -0.2360 C.ar    1  LIG1        0.0438
      5 S          -2.4536   -0.4907   -0.7741 S.2     1  LIG1       -0.0935
      6 H          -2.4099   -2.9188   -0.4775 H       1  LIG1        0.0707
      7 N           0.7606   -3.9657    1.0447 N.1     1  LIG1       -0.1908
      8 C           0.1695   -3.0566    0.6719 C.1     1  LIG1        0.1009
      9 C           1.1659   -0.1947    0.8207 C.1     1  LIG1       -0.0672
     10 C           2.2322    0.1098    1.2804 C.1     1  LIG1       -0.1138
     11 H           3.1835    0.3813    1.6785 H       1  LIG1        0.1232
     12 C          -0.8874    1.7698   -0.3290 C.ar    1  LIG1        0.0463
     13 C           0.1418    2.4772   -0.8905 C.ar    1  LIG1        0.0830
     14 C          -0.0311    3.9028   -0.7955 C.ar    1  LIG1        0.0579
     15 C          -1.1996    4.2262   -0.1543 C.ar    1  LIG1        0.0444
     16 S          -2.0747    2.8230    0.3374 S.2     1  LIG1       -0.0846
     17 N           2.1395    1.3960   -2.1240 N.1     1  LIG1       -0.1908
     18 C           1.2552    1.8697   -1.5686 C.1     1  LIG1        0.1016
     19 C           0.8846    4.8523   -1.3505 C.1     1  LIG1       -0.0672
     20 C           1.6564    5.6447   -1.8168 C.1     1  LIG1       -0.1138
     21 H           2.3452    6.3512   -2.2211 H       1  LIG1        0.1232
     22 C          -1.7098    5.5718    0.1170 C.ar    1  LIG1        0.0463
     23 C          -1.0461    6.6108    0.7131 C.ar    1  LIG1        0.0830
     24 C          -1.8424    7.8048    0.8216 C.ar    1  LIG1        0.0579
     25 C          -3.0960    7.6244    0.2955 C.ar    1  LIG1        0.0444
     26 S          -3.3057    6.0336   -0.3359 S.2     1  LIG1       -0.0846
     27 N           1.3468    6.4430    1.6772 N.1     1  LIG1       -0.1908
     28 C           0.2877    6.5130    1.2425 C.1     1  LIG1        0.1016
     29 C          -1.3837    9.0055    1.4510 C.1     1  LIG1       -0.0672
     30 C          -0.9863   10.0063    1.9808 C.1     1  LIG1       -0.1138
     31 H          -0.6298   10.8997    2.4406 H       1  LIG1        0.1232
     32 C          -4.1797    8.6089    0.2384 C.ar    1  LIG1        0.0457
     33 C          -4.1218    9.8869   -0.2488 C.ar    1  LIG1        0.0824
     34 C          -5.3760   10.5884   -0.1371 C.ar    1  LIG1        0.0496
     35 C          -6.3398    9.8041    0.4262 C.ar    1  LIG1       -0.0070
     36 S          -5.7554    8.2469    0.8343 S.2     1  LIG1       -0.0935
     37 H          -7.3641   10.0784    0.6194 H       1  LIG1        0.0706
     38 N          -2.0354   10.9402   -1.3554 N.1     1  LIG1       -0.1908
     39 C          -2.9542   10.4658   -0.8583 C.1     1  LIG1        0.1015
     40 C          -5.5733   11.9381   -0.5817 C.1     1  LIG1       -0.0678
     41 C          -5.7196   13.0671   -0.9613 C.1     1  LIG1       -0.1139
     42 H          -5.8429   14.0692   -1.3026 H       1  LIG1        0.1232
@<TRIPOS>BOND
     1    21    20    1
     2    17    18    3
     3    20    19    3
     4    18    13    1
     5    38    39    3
     6    19    14    1
     7    42    41    1
     8    41    40    3
     9    13    14   ar
    10    13    12   ar
    11    39    33    1
    12    14    15   ar
    13     5     1   ar
    14     5     4   ar
    15    40    34    1
    16     6     1    1
    17    26    22   ar
    18    26    25   ar
    19    12     4    1
    20    12    16   ar
    21     1     2   ar
    22    33    34   ar
    23    33    32   ar
    24     4     3   ar
    25    15    22    1
    26    15    16   ar
    27    34    35   ar
    28    22    23   ar
    29     2     3   ar
    30     2     8    1
    31    32    25    1
    32    32    36   ar
    33     3     9    1
    34    25    24   ar
    35    35    37    1
    36    35    36   ar
    37     8     7    3
    38    23    24   ar
    39    23    28    1
    40     9    10    3
    41    24    29    1
    42    28    27    3
    43    10    11    1
    44    29    30    3
    45    30    31    1
