@<TRIPOS>MOLECULE
mol_data/opt/m06hf/geoms/mol2/5de5de5de-5de.out
 42 45 0 0 0
SMALL
GASTEIGER

@<TRIPOS>ATOM
      1 C          -1.8297   -2.0192   -0.3505 C.ar    1  LIG1       -0.0051
      2 C          -0.5878   -1.9217    0.2023 C.ar    1  LIG1        0.0747
      3 C          -0.1062   -0.5654    0.2729 C.ar    1  LIG1        0.0573
      4 C          -1.0204    0.3138   -0.2481 C.ar    1  LIG1        0.0438
      5 S          -2.4401   -0.4912   -0.8099 S.2     1  LIG1       -0.0935
      6 H          -2.4015   -2.9192   -0.5109 H       1  LIG1        0.0707
      7 N           0.7427   -3.9649    1.0657 N.1     1  LIG1       -0.1908
      8 C           0.1580   -3.0561    0.6822 C.1     1  LIG1        0.1009
      9 C           1.1519   -0.1941    0.8459 C.1     1  LIG1       -0.0672
     10 C           2.2102    0.1108    1.3234 C.1     1  LIG1       -0.1138
     11 H           3.1546    0.3826    1.7374 H       1  LIG1        0.1232
     12 C          -0.8817    1.7695   -0.3399 C.ar    1  LIG1        0.0463
     13 C           0.1569    2.4766   -0.8844 C.ar    1  LIG1        0.0830
     14 C          -0.0176    3.9022   -0.7932 C.ar    1  LIG1        0.0579
     15 C          -1.1968    4.2261   -0.1722 C.ar    1  LIG1        0.0444
     16 S          -2.0800    2.8233    0.3055 S.2     1  LIG1       -0.0846
     17 N           2.1753    1.3945   -2.0830 N.1     1  LIG1       -0.1908
     18 C           1.2816    1.8686   -1.5431 C.1     1  LIG1        0.1016
     19 C           0.9074    4.8514   -1.3333 C.1     1  LIG1       -0.0672
     20 C           1.6870    5.6434   -1.7870 C.1     1  LIG1       -0.1138
     21 H           2.3827    6.3497   -2.1801 H       1  LIG1        0.1232
     22 C          -1.7114    5.5719    0.0895 C.ar    1  LIG1        0.0463
     23 C          -1.0580    6.6113    0.6961 C.ar    1  LIG1        0.0830
     24 C          -1.8559    7.8053    0.7902 C.ar    1  LIG1        0.0579
     25 C          -3.1005    7.6246    0.2431 C.ar    1  LIG1        0.0444
     26 S          -3.2995    6.0334   -0.3907 S.2     1  LIG1       -0.0846
     27 N           1.3182    6.4441    1.7007 N.1     1  LIG1       -0.1908
     28 C           0.2667    6.5139    1.2481 C.1     1  LIG1        0.1016
     29 C          -1.4079    9.0065    1.4265 C.1     1  LIG1       -0.0672
     30 C          -1.0196   10.0077    1.9622 C.1     1  LIG1       -0.1138
     31 H          -0.6709   10.9014    2.4274 H       1  LIG1        0.1232
     32 C          -4.1830    8.6091    0.1669 C.ar    1  LIG1        0.0457
     33 C          -4.1168    9.8867   -0.3201 C.ar    1  LIG1        0.0824
     34 C          -5.3727   10.5884   -0.2301 C.ar    1  LIG1        0.0496
     35 C          -6.3460    9.8045    0.3173 C.ar    1  LIG1       -0.0070
     36 S          -5.7686    8.2475    0.7363 S.2     1  LIG1       -0.0935
     37 H          -7.3734   10.0789    0.4930 H       1  LIG1        0.0706
     38 N          -2.0120   10.9393   -1.3919 N.1     1  LIG1       -0.1908
     39 C          -2.9391   10.4653   -0.9102 C.1     1  LIG1        0.1015
     40 C          -5.5625   11.9377   -0.6789 C.1     1  LIG1       -0.0678
     41 C          -5.7023   13.0664   -1.0618 C.1     1  LIG1       -0.1139
     42 H          -5.8197   14.0683   -1.4057 H       1  LIG1        0.1232
@<TRIPOS>BOND
     1    21    20    1
     2    17    18    3
     3    20    19    3
     4    18    13    1
     5    42    41    1
     6    38    39    3
     7    19    14    1
     8    41    40    3
     9    39    33    1
    10    13    14   ar
    11    13    12   ar
    12     5     1   ar
    13     5     4   ar
    14    14    15   ar
    15    40    34    1
    16     6     1    1
    17    26    22   ar
    18    26    25   ar
    19     1     2   ar
    20    12     4    1
    21    12    16   ar
    22    33    34   ar
    23    33    32   ar
    24     4     3   ar
    25    34    35   ar
    26    15    22    1
    27    15    16   ar
    28    22    23   ar
    29    32    25    1
    30    32    36   ar
    31     2     3   ar
    32     2     8    1
    33    25    24   ar
    34     3     9    1
    35    35    37    1
    36    35    36   ar
    37     8     7    3
    38    23    24   ar
    39    23    28    1
    40    24    29    1
    41     9    10    3
    42    28    27    3
    43    10    11    1
    44    29    30    3
    45    30    31    1
