@<TRIPOS>MOLECULE
mol_data/opt/m06hf/geoms/mol2/5de5de5de-5de-.out
 42 45 0 0 0
SMALL
GASTEIGER

@<TRIPOS>ATOM
      1 C          -0.8274   -1.8121    1.8799 C.ar    1  LIG1       -0.0051
      2 C          -0.4959   -1.8698    0.5590 C.ar    1  LIG1        0.0747
      3 C          -0.3398   -0.5689   -0.0407 C.ar    1  LIG1        0.0573
      4 C          -0.5584    0.4291    0.8731 C.ar    1  LIG1        0.0438
      5 S          -0.9494   -0.2002    2.4328 S.2     1  LIG1       -0.0935
      6 H          -0.9990   -2.6444    2.5435 H       1  LIG1        0.0707
      7 N          -0.2286   -4.0917   -0.7392 N.1     1  LIG1       -0.1908
      8 C          -0.3411   -3.1039   -0.1671 C.1     1  LIG1        0.1009
      9 C          -0.0266   -0.3586   -1.4214 C.1     1  LIG1       -0.0672
     10 C           0.2423   -0.1914   -2.5790 C.1     1  LIG1       -0.1138
     11 H           0.4954   -0.0416   -3.6036 H       1  LIG1        0.1232
     12 C          -0.4890    1.8727    0.6305 C.ar    1  LIG1        0.0463
     13 C           0.5523    2.5787    0.0897 C.ar    1  LIG1        0.0830
     14 C           0.2825    3.9872   -0.0277 C.ar    1  LIG1        0.0579
     15 C          -0.9654    4.3007    0.4468 C.ar    1  LIG1        0.0444
     16 S          -1.8103    2.9082    1.0108 S.2     1  LIG1       -0.0846
     17 N           2.8039    1.5279   -0.6253 N.1     1  LIG1       -0.1908
     18 C           1.8029    1.9875   -0.3054 C.1     1  LIG1        0.1016
     19 C           1.2012    4.9301   -0.5887 C.1     1  LIG1       -0.0672
     20 C           1.9762    5.7188   -1.0555 C.1     1  LIG1       -0.1138
     21 H           2.6678    6.4227   -1.4592 H       1  LIG1        0.1232
     22 C          -1.5742    5.6329    0.4937 C.ar    1  LIG1        0.0463
     23 C          -1.0455    6.7673    1.0487 C.ar    1  LIG1        0.0830
     24 C          -1.9004    7.9170    0.9111 C.ar    1  LIG1        0.0579
     25 C          -3.0596    7.6058    0.2474 C.ar    1  LIG1        0.0444
     26 S          -3.1086    5.9455   -0.2175 S.2     1  LIG1       -0.0846
     27 N           1.1948    6.8394    2.3367 N.1     1  LIG1       -0.1908
     28 C           0.2059    6.8039    1.7570 C.1     1  LIG1        0.1016
     29 C          -1.5825    9.2072    1.4426 C.1     1  LIG1       -0.0672
     30 C          -1.2994   10.2858    1.8861 C.1     1  LIG1       -0.1138
     31 H          -1.0434   11.2475    2.2682 H       1  LIG1        0.1232
     32 C          -4.1635    8.5138   -0.0752 C.ar    1  LIG1        0.0457
     33 C          -4.0892    9.7233   -0.7131 C.ar    1  LIG1        0.0824
     34 C          -5.3740   10.3593   -0.8633 C.ar    1  LIG1        0.0496
     35 C          -6.3747    9.5961   -0.3363 C.ar    1  LIG1       -0.0070
     36 S          -5.7905    8.1383    0.3471 S.2     1  LIG1       -0.0935
     37 H          -7.4263    9.8313   -0.3198 H       1  LIG1        0.0706
     38 N          -1.9113   10.7474   -1.6585 N.1     1  LIG1       -0.1908
     39 C          -2.8715   10.2877   -1.2310 C.1     1  LIG1        0.1015
     40 C          -5.5614   11.6299   -1.5032 C.1     1  LIG1       -0.0678
     41 C          -5.6957   12.6936   -2.0423 C.1     1  LIG1       -0.1139
     42 H          -5.8076   13.6382   -2.5231 H       1  LIG1        0.1232
@<TRIPOS>BOND
     1    11    10    1
     2    10     9    3
     3    42    41    1
     4    41    40    3
     5    38    39    3
     6    40    34    1
     7    21    20    1
     8     9     3    1
     9    39    33    1
    10    20    19    3
    11    34    33   ar
    12    34    35   ar
    13     7     8    3
    14    33    32   ar
    15    17    18    3
    16    19    14    1
    17    35    37    1
    18    35    36   ar
    19    18    13    1
    20    26    25   ar
    21    26    22   ar
    22     8     2    1
    23    32    25    1
    24    32    36   ar
    25     3     2   ar
    26     3     4   ar
    27    14    13   ar
    28    14    15   ar
    29    13    12   ar
    30    25    24   ar
    31    15    22    1
    32    15    16   ar
    33    22    23   ar
    34     2     1   ar
    35    12     4    1
    36    12    16   ar
    37     4     5   ar
    38    24    23   ar
    39    24    29    1
    40    23    28    1
    41    29    30    3
    42    28    27    3
    43     1     5   ar
    44     1     6    1
    45    30    31    1
