@<TRIPOS>MOLECULE
mol_data/opt/m06hf/geoms/mol2/5de5de-5de-5de-.out
 42 45 0 0 0
SMALL
GASTEIGER

@<TRIPOS>ATOM
      1 C          -1.8369   -2.0187    0.3357 C.ar    1  LIG1       -0.0051
      2 C          -0.5838   -1.9220   -0.1914 C.ar    1  LIG1        0.0747
      3 C          -0.1008   -0.5658   -0.2539 C.ar    1  LIG1        0.0573
      4 C          -1.0255    0.3142    0.2470 C.ar    1  LIG1        0.0438
      5 S          -2.4566   -0.4902    0.7803 S.2     1  LIG1       -0.0935
      6 H          -2.4119   -2.9185    0.4854 H       1  LIG1        0.0707
      7 N           0.7643   -3.9663   -1.0243 N.1     1  LIG1       -0.1908
      8 C           0.1718   -3.0571   -0.6542 C.1     1  LIG1        0.1009
      9 C           1.1689   -0.1953   -0.8012 C.1     1  LIG1       -0.0672
     10 C           2.2369    0.1090   -1.2570 C.1     1  LIG1       -0.1138
     11 H           3.1897    0.3802   -1.6517 H       1  LIG1        0.1232
     12 C          -0.8887    1.7700    0.3397 C.ar    1  LIG1        0.0463
     13 C           0.1384    2.4777    0.9046 C.ar    1  LIG1        0.0830
     14 C          -0.0341    3.9033    0.8080 C.ar    1  LIG1        0.0579
     15 C          -1.2002    4.2263    0.1622 C.ar    1  LIG1        0.0444
     16 S          -2.0734    2.8228   -0.3319 S.2     1  LIG1       -0.0846
     17 N           2.1314    1.3972    2.1462 N.1     1  LIG1       -0.1908
     18 C           1.2492    1.8706    1.5873 C.1     1  LIG1        0.1016
     19 C           0.8795    4.8531    1.3658 C.1     1  LIG1       -0.0672
     20 C           1.6496    5.6458    1.8345 C.1     1  LIG1       -0.1138
     21 H           2.3369    6.3526    2.2409 H       1  LIG1        0.1232
     22 C          -1.7093    5.5718   -0.1118 C.ar    1  LIG1        0.0463
     23 C          -1.0434    6.6104   -0.7061 C.ar    1  LIG1        0.0830
     24 C          -1.8392    7.8043   -0.8183 C.ar    1  LIG1        0.0579
     25 C          -3.0948    7.6243   -0.2968 C.ar    1  LIG1        0.0444
     26 S          -3.3069    6.0339    0.3348 S.2     1  LIG1       -0.0846
     27 N           1.3531    6.4419   -1.6610 N.1     1  LIG1       -0.1908
     28 C           0.2925    6.5122   -1.2304 C.1     1  LIG1        0.1016
     29 C          -1.3781    9.0046   -1.4467 C.1     1  LIG1       -0.0672
     30 C          -0.9787   10.0051   -1.9756 C.1     1  LIG1       -0.1138
     31 H          -0.6204   10.8982   -2.4347 H       1  LIG1        0.1232
     32 C          -4.1786    8.6089   -0.2443 C.ar    1  LIG1        0.0457
     33 C          -4.1225    9.8871    0.2422 C.ar    1  LIG1        0.0824
     34 C          -5.3762   10.5887    0.1254 C.ar    1  LIG1        0.0496
     35 C          -6.3380    9.8041   -0.4411 C.ar    1  LIG1       -0.0070
     36 S          -5.7521    8.2466   -0.8460 S.2     1  LIG1       -0.0935
     37 H          -7.3615   10.0783   -0.6383 H       1  LIG1        0.0706
     38 N          -2.0403   10.9411    1.3561 N.1     1  LIG1       -0.1908
     39 C          -2.9572   10.4665    0.8558 C.1     1  LIG1        0.1015
     40 C          -5.5752   11.9386    0.5684 C.1     1  LIG1       -0.0678
     41 C          -5.7229   13.0679    0.9468 C.1     1  LIG1       -0.1139
     42 H          -5.8474   14.0702    1.2869 H       1  LIG1        0.1232
@<TRIPOS>BOND
     1    31    30    1
     2    30    29    3
     3    27    28    3
     4    11    10    1
     5    29    24    1
     6    10     9    3
     7    28    23    1
     8     7     8    3
     9    36    35   ar
    10    36    32   ar
    11    24    23   ar
    12    24    25   ar
    13     9     3    1
    14    23    22   ar
    15     8     2    1
    16    37    35    1
    17    35    34   ar
    18    16    15   ar
    19    16    12   ar
    20    25    32    1
    21    25    26   ar
    22     3     2   ar
    23     3     4   ar
    24    32    33   ar
    25     2     1   ar
    26    22    15    1
    27    22    26   ar
    28    34    33   ar
    29    34    40    1
    30    15    14   ar
    31    33    39    1
    32     4    12    1
    33     4     5   ar
    34     1     6    1
    35     1     5   ar
    36    12    13   ar
    37    40    41    3
    38    14    13   ar
    39    14    19    1
    40    39    38    3
    41    13    18    1
    42    41    42    1
    43    19    20    3
    44    18    17    3
    45    20    21    1
