@<TRIPOS>MOLECULE
mol_data/opt/m06hf/geoms/mol2/5de5de5de5de-.out
 42 45 0 0 0
SMALL
GASTEIGER

@<TRIPOS>ATOM
      1 C          -1.8292   -2.0191   -0.3534 C.ar    1  LIG1       -0.0051
      2 C          -0.5851   -1.9216    0.1945 C.ar    1  LIG1        0.0747
      3 C          -0.1036   -0.5652    0.2640 C.ar    1  LIG1        0.0573
      4 C          -1.0200    0.3141   -0.2530 C.ar    1  LIG1        0.0438
      5 S          -2.4418   -0.4910   -0.8095 S.2     1  LIG1       -0.0935
      6 H          -2.4014   -2.9191   -0.5119 H       1  LIG1        0.0707
      7 N           0.7494   -3.9649    1.0515 N.1     1  LIG1       -0.1908
      8 C           0.1629   -3.0561    0.6709 C.1     1  LIG1        0.1009
      9 C           1.1566   -0.1939    0.8322 C.1     1  LIG1       -0.0672
     10 C           2.2168    0.1110    1.3056 C.1     1  LIG1       -0.1138
     11 H           3.1628    0.3828    1.7160 H       1  LIG1        0.1232
     12 C          -0.8821    1.7699   -0.3445 C.ar    1  LIG1        0.0463
     13 C           0.1542    2.4775   -0.8927 C.ar    1  LIG1        0.0830
     14 C          -0.0203    3.9030   -0.8002 C.ar    1  LIG1        0.0579
     15 C          -1.1972    4.2263   -0.1743 C.ar    1  LIG1        0.0444
     16 S          -2.0782    2.8230    0.3062 S.2     1  LIG1       -0.0846
     17 N           2.1680    1.3965   -2.0999 N.1     1  LIG1       -0.1908
     18 C           1.2764    1.8701   -1.5562 C.1     1  LIG1        0.1016
     19 C           0.9022    4.8527   -1.3434 C.1     1  LIG1       -0.0672
     20 C           1.6798    5.6452   -1.7998 C.1     1  LIG1       -0.1138
     21 H           2.3737    6.3518   -2.1952 H       1  LIG1        0.1232
     22 C          -1.7111    5.5718    0.0901 C.ar    1  LIG1        0.0463
     23 C          -1.0555    6.6111    0.6946 C.ar    1  LIG1        0.0830
     24 C          -1.8534    7.8049    0.7925 C.ar    1  LIG1        0.0579
     25 C          -3.1001    7.6241    0.2503 C.ar    1  LIG1        0.0444
     26 S          -3.3012    6.0331   -0.3835 S.2     1  LIG1       -0.0846
     27 N           1.3247    6.4440    1.6897 N.1     1  LIG1       -0.1908
     28 C           0.2714    6.5137    1.2413 C.1     1  LIG1        0.1016
     29 C          -1.4032    9.0058    1.4276 C.1     1  LIG1       -0.0672
     30 C          -1.0130   10.0068    1.9624 C.1     1  LIG1       -0.1138
     31 H          -0.6627   10.9004    2.4266 H       1  LIG1        0.1232
     32 C          -4.1831    8.6084    0.1789 C.ar    1  LIG1        0.0457
     33 C          -4.1192    9.8862   -0.3077 C.ar    1  LIG1        0.0824
     34 C          -5.3749   10.5875   -0.2125 C.ar    1  LIG1        0.0496
     35 C          -6.3458    9.8031    0.3384 C.ar    1  LIG1       -0.0070
     36 S          -5.7664    8.2461    0.7544 S.2     1  LIG1       -0.0935
     37 H          -7.3725   10.0772    0.5183 H       1  LIG1        0.0706
     38 N          -2.0189   10.9399   -1.3873 N.1     1  LIG1       -0.1908
     39 C          -2.9439   10.4654   -0.9022 C.1     1  LIG1        0.1015
     40 C          -5.5668   11.9370   -0.6598 C.1     1  LIG1       -0.0678
     41 C          -5.7084   13.0659   -1.0415 C.1     1  LIG1       -0.1139
     42 H          -5.8274   14.0679   -1.3845 H       1  LIG1        0.1232
@<TRIPOS>BOND
     1    21    20    1
     2    17    18    3
     3    20    19    3
     4    18    13    1
     5    38    39    3
     6    42    41    1
     7    19    14    1
     8    41    40    3
     9    39    33    1
    10    13    14   ar
    11    13    12   ar
    12     5     1   ar
    13     5     4   ar
    14    14    15   ar
    15    40    34    1
    16     6     1    1
    17    26    22   ar
    18    26    25   ar
    19     1     2   ar
    20    12     4    1
    21    12    16   ar
    22    33    34   ar
    23    33    32   ar
    24     4     3   ar
    25    34    35   ar
    26    15    22    1
    27    15    16   ar
    28    22    23   ar
    29    32    25    1
    30    32    36   ar
    31     2     3   ar
    32     2     8    1
    33    25    24   ar
    34     3     9    1
    35    35    37    1
    36    35    36   ar
    37     8     7    3
    38    23    24   ar
    39    23    28    1
    40    24    29    1
    41     9    10    3
    42    28    27    3
    43    10    11    1
    44    29    30    3
    45    30    31    1
