@<TRIPOS>MOLECULE
mol_data/opt/m06hf/geoms/mol2/5de5de-5de-.out
 32 34 0 0 0
SMALL
GASTEIGER

@<TRIPOS>ATOM
      1 C          -1.8800   -1.9195    0.5249 C.ar    1  LIG1       -0.0051
      2 C          -0.7484   -1.8349   -0.2298 C.ar    1  LIG1        0.0747
      3 C          -0.2410   -0.4904   -0.3387 C.ar    1  LIG1        0.0573
      4 C          -1.0231    0.3939    0.3591 C.ar    1  LIG1        0.0438
      5 S          -2.3524   -0.3920    1.1297 S.2     1  LIG1       -0.0935
      6 H          -2.4458   -2.8089    0.7514 H       1  LIG1        0.0707
      7 N           0.3387   -3.8854   -1.3724 N.1     1  LIG1       -0.1908
      8 C          -0.1359   -2.9719   -0.8670 C.1     1  LIG1        0.1009
      9 C           0.9116   -0.1324   -1.1080 C.1     1  LIG1       -0.0672
     10 C           1.8831    0.1601   -1.7495 C.1     1  LIG1       -0.1138
     11 H           2.7514    0.4225   -2.3098 H       1  LIG1        0.1232
     12 C          -0.8301    1.8420    0.4703 C.ar    1  LIG1        0.0463
     13 C           0.3077    2.5097    0.8377 C.ar    1  LIG1        0.0830
     14 C           0.1523    3.9407    0.8322 C.ar    1  LIG1        0.0579
     15 C          -1.1142    4.3088    0.4559 C.ar    1  LIG1        0.0444
     16 S          -2.1009    2.9414    0.0945 S.2     1  LIG1       -0.0846
     17 N           2.4901    1.3574    1.6073 N.1     1  LIG1       -0.1908
     18 C           1.5207    1.8603    1.2569 C.1     1  LIG1        0.1016
     19 C           1.1870    4.8508    1.2189 C.1     1  LIG1       -0.0672
     20 C           2.0647    5.6048    1.5376 C.1     1  LIG1       -0.1138
     21 H           2.8496    6.2743    1.8065 H       1  LIG1        0.1232
     22 C          -1.6445    5.6710    0.3519 C.ar    1  LIG1        0.0457
     23 C          -1.1081    6.7290   -0.3323 C.ar    1  LIG1        0.0824
     24 C          -1.8920    7.9326   -0.2101 C.ar    1  LIG1        0.0496
     25 C          -3.0005    7.7324    0.5595 C.ar    1  LIG1       -0.0070
     26 S          -3.1034    6.1272    1.1470 S.2     1  LIG1       -0.0935
     27 H          -3.7553    8.4613    0.8055 H       1  LIG1        0.0706
     28 N           1.0227    6.5985   -1.7917 N.1     1  LIG1       -0.1908
     29 C           0.0820    6.6482   -1.1368 C.1     1  LIG1        0.1015
     30 C          -1.5445    9.1754   -0.8372 C.1     1  LIG1       -0.0678
     31 C          -1.2378   10.2068   -1.3687 C.1     1  LIG1       -0.1139
     32 H          -0.9612   11.1199   -1.8436 H       1  LIG1        0.1232
@<TRIPOS>BOND
     1    11    10    1
     2    32    31    1
     3    28    29    3
     4    10     9    3
     5     7     8    3
     6    31    30    3
     7    29    23    1
     8     9     3    1
     9     8     2    1
    10    30    24    1
    11     3     2   ar
    12     3     4   ar
    13    23    24   ar
    14    23    22   ar
    15     2     1   ar
    16    24    25   ar
    17    16    15   ar
    18    16    12   ar
    19    22    15    1
    20    22    26   ar
    21     4    12    1
    22     4     5   ar
    23    15    14   ar
    24    12    13   ar
    25     1     6    1
    26     1     5   ar
    27    25    27    1
    28    25    26   ar
    29    14    13   ar
    30    14    19    1
    31    13    18    1
    32    19    20    3
    33    18    17    3
    34    20    21    1
