@<TRIPOS>MOLECULE
mol_data/opt/m06hf/geoms/mol2/5de5de-5de5de-.out
 42 45 0 0 0
SMALL
GASTEIGER

@<TRIPOS>ATOM
      1 C          -1.8351   -2.0192   -0.3245 C.ar    1  LIG1       -0.0051
      2 C          -0.5829   -1.9215    0.2047 C.ar    1  LIG1        0.0747
      3 C          -0.1002   -0.5651    0.2661 C.ar    1  LIG1        0.0573
      4 C          -1.0242    0.3139   -0.2377 C.ar    1  LIG1        0.0438
      5 S          -2.4542   -0.4914   -0.7724 S.2     1  LIG1       -0.0935
      6 H          -2.4096   -2.9193   -0.4739 H       1  LIG1        0.0707
      7 N           0.7640   -3.9644    1.0431 N.1     1  LIG1       -0.1908
      8 C           0.1721   -3.0558    0.6706 C.1     1  LIG1        0.1009
      9 C           1.1684   -0.1936    0.8151 C.1     1  LIG1       -0.0672
     10 C           2.2355    0.1115    1.2724 C.1     1  LIG1       -0.1138
     11 H           3.1875    0.3835    1.6685 H       1  LIG1        0.1232
     12 C          -0.8875    1.7696   -0.3323 C.ar    1  LIG1        0.0463
     13 C           0.1405    2.4767   -0.8964 C.ar    1  LIG1        0.0830
     14 C          -0.0325    3.9024   -0.8022 C.ar    1  LIG1        0.0579
     15 C          -1.1998    4.2261   -0.1590 C.ar    1  LIG1        0.0444
     16 S          -2.0736    2.8232    0.3356 S.2     1  LIG1       -0.0846
     17 N           2.1359    1.3948   -2.1328 N.1     1  LIG1       -0.1908
     18 C           1.2526    1.8688   -1.5762 C.1     1  LIG1        0.1016
     19 C           0.8819    4.8516   -1.3598 C.1     1  LIG1       -0.0672
     20 C           1.6527    5.6437   -1.8282 C.1     1  LIG1       -0.1138
     21 H           2.3407    6.3500   -2.2345 H       1  LIG1        0.1232
     22 C          -1.7096    5.5719    0.1122 C.ar    1  LIG1        0.0463
     23 C          -1.0449    6.6115    0.7062 C.ar    1  LIG1        0.0830
     24 C          -1.8412    7.8054    0.8152 C.ar    1  LIG1        0.0579
     25 C          -3.0958    7.6245    0.2918 C.ar    1  LIG1        0.0444
     26 S          -3.3065    6.0331   -0.3379 S.2     1  LIG1       -0.0846
     27 N           1.3499    6.4449    1.6657 N.1     1  LIG1       -0.1908
     28 C           0.2900    6.5144    1.2330 C.1     1  LIG1        0.1016
     29 C          -1.3814    9.0067    1.4427 C.1     1  LIG1       -0.0672
     30 C          -0.9832   10.0081    1.9709 C.1     1  LIG1       -0.1138
     31 H          -0.6259   10.9019    2.4293 H       1  LIG1        0.1232
     32 C          -4.1797    8.6088    0.2360 C.ar    1  LIG1        0.0457
     33 C          -4.1230    9.8863   -0.2524 C.ar    1  LIG1        0.0824
     34 C          -5.3771   10.5878   -0.1388 C.ar    1  LIG1        0.0496
     35 C          -6.3397    9.8038    0.4271 C.ar    1  LIG1       -0.0070
     36 S          -5.7543    8.2470    0.8353 S.2     1  LIG1       -0.0935
     37 H          -7.3636   10.0781    0.6221 H       1  LIG1        0.0706
     38 N          -2.0390   10.9391   -1.3640 N.1     1  LIG1       -0.1908
     39 C          -2.9567   10.4649   -0.8647 C.1     1  LIG1        0.1015
     40 C          -5.5755   11.9370   -0.5840 C.1     1  LIG1       -0.0678
     41 C          -5.7227   13.0657   -0.9644 C.1     1  LIG1       -0.1139
     42 H          -5.8468   14.0675   -1.3062 H       1  LIG1        0.1232
@<TRIPOS>BOND
     1    21    20    1
     2    17    18    3
     3    20    19    3
     4    18    13    1
     5    38    39    3
     6    19    14    1
     7    42    41    1
     8    41    40    3
     9    13    14   ar
    10    13    12   ar
    11    39    33    1
    12    14    15   ar
    13     5     1   ar
    14     5     4   ar
    15    40    34    1
    16     6     1    1
    17    26    22   ar
    18    26    25   ar
    19    12     4    1
    20    12    16   ar
    21     1     2   ar
    22    33    34   ar
    23    33    32   ar
    24     4     3   ar
    25    15    22    1
    26    15    16   ar
    27    34    35   ar
    28    22    23   ar
    29     2     3   ar
    30     2     8    1
    31    32    25    1
    32    32    36   ar
    33     3     9    1
    34    25    24   ar
    35    35    37    1
    36    35    36   ar
    37     8     7    3
    38    23    24   ar
    39    23    28    1
    40     9    10    3
    41    24    29    1
    42    28    27    3
    43    10    11    1
    44    29    30    3
    45    30    31    1
