@<TRIPOS>MOLECULE
mol_data/opt/m06hf/geoms/mol2/5de5de5de5de.out
 42 45 0 0 0
SMALL
GASTEIGER

@<TRIPOS>ATOM
      1 C          -1.8251   -2.0183   -0.3684 C.ar    1  LIG1       -0.0051
      2 C          -0.5826   -1.9217    0.1834 C.ar    1  LIG1        0.0747
      3 C          -0.1019   -0.5653    0.2578 C.ar    1  LIG1        0.0573
      4 C          -1.0172    0.3150   -0.2595 C.ar    1  LIG1        0.0438
      5 S          -2.4370   -0.4893   -0.8223 S.2     1  LIG1       -0.0935
      6 H          -2.3964   -2.9182   -0.5310 H       1  LIG1        0.0707
      7 N           0.7503   -3.9667    1.0389 N.1     1  LIG1       -0.1908
      8 C           0.1645   -3.0571    0.6589 C.1     1  LIG1        0.1009
      9 C           1.1565   -0.1949    0.8306 C.1     1  LIG1       -0.0672
     10 C           2.2151    0.1092    1.3079 C.1     1  LIG1       -0.1138
     11 H           3.1598    0.3803    1.7218 H       1  LIG1        0.1232
     12 C          -0.8796    1.7710   -0.3468 C.ar    1  LIG1        0.0463
     13 C           0.1579    2.4805   -0.8901 C.ar    1  LIG1        0.0830
     14 C          -0.0175    3.9058   -0.7943 C.ar    1  LIG1        0.0579
     15 C          -1.1963    4.2268   -0.1710 C.ar    1  LIG1        0.0444
     16 S          -2.0781    2.8219    0.3033 S.2     1  LIG1       -0.0846
     17 N           2.1757    1.4037   -2.0943 N.1     1  LIG1       -0.1908
     18 C           1.2823    1.8755   -1.5519 C.1     1  LIG1        0.1016
     19 C           0.9062    4.8573   -1.3323 C.1     1  LIG1       -0.0672
     20 C           1.6847    5.6513   -1.7843 C.1     1  LIG1       -0.1138
     21 H           2.3795    6.3593   -2.1759 H       1  LIG1        0.1232
     22 C          -1.7117    5.5715    0.0955 C.ar    1  LIG1        0.0463
     23 C          -1.0583    6.6094    0.7047 C.ar    1  LIG1        0.0830
     24 C          -1.8570    7.8026    0.8034 C.ar    1  LIG1        0.0579
     25 C          -3.1020    7.6227    0.2571 C.ar    1  LIG1        0.0444
     26 S          -3.3005    6.0333   -0.3815 S.2     1  LIG1       -0.0846
     27 N           1.3191    6.4408    1.7063 N.1     1  LIG1       -0.1908
     28 C           0.2671    6.5112    1.2550 C.1     1  LIG1        0.1016
     29 C          -1.4092    9.0020    1.4430 C.1     1  LIG1       -0.0672
     30 C          -1.0210   10.0018    1.9815 C.1     1  LIG1       -0.1138
     31 H          -0.6725   10.8943    2.4491 H       1  LIG1        0.1232
     32 C          -4.1853    8.6066    0.1851 C.ar    1  LIG1        0.0457
     33 C          -4.1205    9.8858   -0.2979 C.ar    1  LIG1        0.0824
     34 C          -5.3768   10.5863   -0.2044 C.ar    1  LIG1        0.0496
     35 C          -6.3490    9.7999    0.3416 C.ar    1  LIG1       -0.0070
     36 S          -5.7701    8.2421    0.7551 S.2     1  LIG1       -0.0935
     37 H          -7.3764   10.0731    0.5192 H       1  LIG1        0.0706
     38 N          -2.0176   10.9433   -1.3686 N.1     1  LIG1       -0.1908
     39 C          -2.9438   10.4671   -0.8874 C.1     1  LIG1        0.1015
     40 C          -5.5680   11.9369   -0.6487 C.1     1  LIG1       -0.0678
     41 C          -5.7090   13.0667   -1.0279 C.1     1  LIG1       -0.1139
     42 H          -5.8276   14.0696   -1.3685 H       1  LIG1        0.1232
@<TRIPOS>BOND
     1    21    20    1
     2    17    18    3
     3    20    19    3
     4    18    13    1
     5    38    39    3
     6    42    41    1
     7    19    14    1
     8    41    40    3
     9    13    14   ar
    10    13    12   ar
    11    39    33    1
    12     5     1   ar
    13     5     4   ar
    14    14    15   ar
    15    40    34    1
    16     6     1    1
    17    26    22   ar
    18    26    25   ar
    19     1     2   ar
    20    12     4    1
    21    12    16   ar
    22    33    34   ar
    23    33    32   ar
    24     4     3   ar
    25    34    35   ar
    26    15    22    1
    27    15    16   ar
    28    22    23   ar
    29     2     3   ar
    30     2     8    1
    31    32    25    1
    32    32    36   ar
    33    25    24   ar
    34     3     9    1
    35    35    37    1
    36    35    36   ar
    37     8     7    3
    38    23    24   ar
    39    23    28    1
    40    24    29    1
    41     9    10    3
    42    28    27    3
    43    10    11    1
    44    29    30    3
    45    30    31    1
