@<TRIPOS>MOLECULE
mol_data/opt/m06hf/geoms/mol2/5de5de-.out
 22 23 0 0 0
SMALL
GASTEIGER

@<TRIPOS>ATOM
      1 C          -2.0163   -1.7223    0.7454 C.ar    1  LIG1       -0.0051
      2 C          -0.7490   -1.8118    0.2540 C.ar    1  LIG1        0.0747
      3 C          -0.1999   -0.5349   -0.1281 C.ar    1  LIG1        0.0573
      4 C          -1.0918    0.4806    0.1024 C.ar    1  LIG1        0.0438
      5 S          -2.5719   -0.1064    0.7717 S.2     1  LIG1       -0.0935
      6 H          -2.6373   -2.5322    1.0925 H       1  LIG1        0.0707
      7 N           0.5214   -4.0504   -0.0064 N.1     1  LIG1       -0.1908
      8 C          -0.0372   -3.0556    0.1111 C.1     1  LIG1        0.1009
      9 C           1.1017   -0.3698   -0.7004 C.1     1  LIG1       -0.0672
     10 C           2.1989   -0.2477   -1.1711 C.1     1  LIG1       -0.1138
     11 H           3.1790   -0.1376   -1.5747 H       1  LIG1        0.1232
     12 C          -0.8906    1.9085   -0.1590 C.ar    1  LIG1        0.0457
     13 C           0.1498    2.6955    0.2562 C.ar    1  LIG1        0.0824
     14 C           0.0380    4.0611   -0.1928 C.ar    1  LIG1        0.0496
     15 C          -1.0950    4.2551   -0.9276 C.ar    1  LIG1       -0.0070
     16 S          -2.0143    2.8191   -1.0977 S.2     1  LIG1       -0.0935
     17 H          -1.4221    5.1787   -1.3758 H       1  LIG1        0.0706
     18 N           2.0675    1.8760    1.7849 N.1     1  LIG1       -0.1908
     19 C           1.2184    2.2314    1.1003 C.1     1  LIG1        0.1015
     20 C           0.9990    5.0809    0.1165 C.1     1  LIG1       -0.0678
     21 C           1.8132    5.9213    0.3841 C.1     1  LIG1       -0.1139
     22 H           2.5391    6.6634    0.6263 H       1  LIG1        0.1232
@<TRIPOS>BOND
     1    11    10    1
     2    17    15    1
     3    10     9    3
     4    16    15   ar
     5    16    12   ar
     6    15    14   ar
     7     9     3    1
     8    14    20    1
     9    14    13   ar
    10    12     4    1
    11    12    13   ar
    12     3     4   ar
    13     3     2   ar
    14     7     8    3
    15     4     5   ar
    16     8     2    1
    17    20    21    3
    18     2     1   ar
    19    13    19    1
    20    21    22    1
    21     1     5   ar
    22     1     6    1
    23    19    18    3
