@<TRIPOS>MOLECULE
mol_data/opt/m06hf/geoms/mol2/5df.out
 11 11 0 0 0
SMALL
GASTEIGER

@<TRIPOS>ATOM
      1 C          -2.1025   -1.7024    0.0001 C.ar    1  LIG1       -0.0033
      2 C          -0.7400   -1.6655   -0.0003 C.ar    1  LIG1        0.1001
      3 C          -0.2249   -0.3206   -0.0002 C.ar    1  LIG1        0.1411
      4 C          -1.2173    0.6080    0.0004 C.ar    1  LIG1        0.0185
      5 S          -2.7760   -0.1326    0.0003 S.2     1  LIG1       -0.1000
      6 H          -2.7259   -2.5815    0.0002 H       1  LIG1        0.0707
      7 H          -1.1180    1.6809    0.0006 H       1  LIG1        0.0730
      8 N           0.7611   -3.7708   -0.0012 N.1     1  LIG1       -0.1907
      9 C           0.1003   -2.8330   -0.0008 C.1     1  LIG1        0.1034
     10 O           1.1127   -0.1300   -0.0005 O.3     1  LIG1       -0.5049
     11 H           1.3318    0.8077   -0.0003 H       1  LIG1        0.2922
@<TRIPOS>BOND
     1     8     9    3
     2     9     2    1
     3    10    11    1
     4    10     3    1
     5     2     3   ar
     6     2     1   ar
     7     3     4   ar
     8     1     6    1
     9     1     5   ar
    10     5     4   ar
    11     4     7    1
