@<TRIPOS>MOLECULE
mol_data/opt/m06hf/geoms/mol2/5df5df5df.out
 29 31 0 0 0
SMALL
GASTEIGER

@<TRIPOS>ATOM
      1 C          -2.0282   -1.8528    0.2018 C.ar    1  LIG1       -0.0027
      2 C          -0.7738   -1.8019   -0.3277 C.ar    1  LIG1        0.1007
      3 C          -0.2193   -0.4734   -0.3345 C.ar    1  LIG1        0.1494
      4 C          -1.0905    0.4416    0.2003 C.ar    1  LIG1        0.0699
      5 S          -2.5612   -0.3148    0.7215 S.2     1  LIG1       -0.0910
      6 H          -2.6480   -2.7265    0.3248 H       1  LIG1        0.0708
      7 N           0.4847   -3.8660   -1.2459 N.1     1  LIG1       -0.1907
      8 C          -0.0666   -2.9457   -0.8404 C.1     1  LIG1        0.1034
      9 O           0.9758   -0.2268   -0.9069 O.3     1  LIG1       -0.5043
     10 H           1.6205    0.1193   -0.2698 H       1  LIG1        0.2922
     11 C          -0.9197    1.8889    0.2856 C.ar    1  LIG1        0.0511
     12 C           0.2061    2.5869    0.6361 C.ar    1  LIG1        0.1090
     13 C           0.0436    4.0136    0.5879 C.ar    1  LIG1        0.1501
     14 C          -1.2247    4.3654    0.2060 C.ar    1  LIG1        0.0705
     15 S          -2.1947    2.9678   -0.1352 S.2     1  LIG1       -0.0820
     16 N           2.3580    1.3517    1.3479 N.1     1  LIG1       -0.1907
     17 C           1.4170    1.9405    1.0501 C.1     1  LIG1        0.1040
     18 O           1.0376    4.8260    0.9974 O.3     1  LIG1       -0.5043
     19 H           1.3163    5.4405    0.3000 H       1  LIG1        0.2922
     20 C          -1.7970    5.7072    0.1222 C.ar    1  LIG1        0.0505
     21 C          -1.2118    6.8377   -0.3882 C.ar    1  LIG1        0.1084
     22 C          -2.0529    7.9995   -0.3023 C.ar    1  LIG1        0.1418
     23 C          -3.2591    7.7157    0.2540 C.ar    1  LIG1        0.0191
     24 S          -3.3769    6.0537    0.7081 S.2     1  LIG1       -0.0910
     25 H          -4.0835    8.3887    0.4251 H       1  LIG1        0.0731
     26 N           1.1672    6.7599   -1.3849 N.1     1  LIG1       -0.1907
     27 C           0.0994    6.8355   -0.9656 C.1     1  LIG1        0.1040
     28 O          -1.5904    9.1763   -0.7734 O.3     1  LIG1       -0.5049
     29 H          -2.2236    9.8868   -0.6259 H       1  LIG1        0.2922
@<TRIPOS>BOND
     1    26    27    3
     2     7     8    3
     3    27    21    1
     4     9     3    1
     5     9    10    1
     6     8     2    1
     7    28    29    1
     8    28    22    1
     9    21    22   ar
    10    21    20   ar
    11     3     2   ar
    12     3     4   ar
    13     2     1   ar
    14    22    23   ar
    15    15    14   ar
    16    15    11   ar
    17    20    14    1
    18    20    24   ar
    19     4    11    1
    20     4     5   ar
    21     1     6    1
    22     1     5   ar
    23    14    13   ar
    24    23    25    1
    25    23    24   ar
    26    11    12   ar
    27    19    18    1
    28    13    12   ar
    29    13    18    1
    30    12    17    1
    31    17    16    3
