@<TRIPOS>MOLECULE
mol_data/opt/m06hf/geoms/mol2/5df5df-5df.out
 29 31 0 0 0
SMALL
GASTEIGER

@<TRIPOS>ATOM
      1 C          -2.0295   -1.8526    0.2052 C.ar    1  LIG1       -0.0027
      2 C          -0.7818   -1.8008   -0.3395 C.ar    1  LIG1        0.1007
      3 C          -0.2265   -0.4726   -0.3486 C.ar    1  LIG1        0.1494
      4 C          -1.0903    0.4412    0.2000 C.ar    1  LIG1        0.0699
      5 S          -2.5551   -0.3161    0.7367 S.2     1  LIG1       -0.0910
      6 H          -2.6484   -2.7264    0.3328 H       1  LIG1        0.0708
      7 N           0.4639   -3.8625   -1.2802 N.1     1  LIG1       -0.1907
      8 C          -0.0818   -2.9433   -0.8648 C.1     1  LIG1        0.1034
      9 O           0.9615   -0.2245   -0.9348 O.3     1  LIG1       -0.5043
     10 H           1.6146    0.1180   -0.3045 H       1  LIG1        0.2922
     11 C          -0.9172    1.8880    0.2884 C.ar    1  LIG1        0.0511
     12 C           0.2135    2.5837    0.6275 C.ar    1  LIG1        0.1090
     13 C           0.0517    4.0107    0.5867 C.ar    1  LIG1        0.1501
     14 C          -1.2210    4.3650    0.2220 C.ar    1  LIG1        0.0705
     15 S          -2.1963    2.9695   -0.1123 S.2     1  LIG1       -0.0820
     16 N           2.3727    1.3437    1.3080 N.1     1  LIG1       -0.1907
     17 C           1.4289    1.9346    1.0239 C.1     1  LIG1        0.1040
     18 O           1.0516    4.8205    0.9867 O.3     1  LIG1       -0.5043
     19 H           1.3210    5.4386    0.2889 H       1  LIG1        0.2922
     20 C          -1.7931    5.7076    0.1507 C.ar    1  LIG1        0.0505
     21 C          -1.2136    6.8396   -0.3626 C.ar    1  LIG1        0.1084
     22 C          -2.0528    8.0017   -0.2618 C.ar    1  LIG1        0.1418
     23 C          -3.2521    7.7165    0.3084 C.ar    1  LIG1        0.0191
     24 S          -3.3653    6.0529    0.7578 S.2     1  LIG1       -0.0910
     25 H          -4.0739    8.3894    0.4923 H       1  LIG1        0.0731
     26 N           1.1530    6.7642   -1.3885 N.1     1  LIG1       -0.1907
     27 C           0.0905    6.8388   -0.9560 C.1     1  LIG1        0.1040
     28 O          -1.5954    9.1800   -0.7342 O.3     1  LIG1       -0.5049
     29 H          -2.2263    9.8903   -0.5761 H       1  LIG1        0.2922
@<TRIPOS>BOND
     1    26    27    3
     2     7     8    3
     3    27    21    1
     4     9     3    1
     5     9    10    1
     6     8     2    1
     7    28    29    1
     8    28    22    1
     9    21    22   ar
    10    21    20   ar
    11     3     2   ar
    12     3     4   ar
    13     2     1   ar
    14    22    23   ar
    15    15    14   ar
    16    15    11   ar
    17    20    14    1
    18    20    24   ar
    19     4    11    1
    20     4     5   ar
    21     1     6    1
    22     1     5   ar
    23    14    13   ar
    24    11    12   ar
    25    19    18    1
    26    23    25    1
    27    23    24   ar
    28    13    12   ar
    29    13    18    1
    30    12    17    1
    31    17    16    3
