@<TRIPOS>MOLECULE
mol_data/opt/m06hf/geoms/mol2/5df5df5df5df.out
 38 41 0 0 0
SMALL
GASTEIGER

@<TRIPOS>ATOM
      1 C          -2.0212   -1.9033    0.2391 C.ar    1  LIG1       -0.0027
      2 C          -0.7204   -1.8884   -0.1652 C.ar    1  LIG1        0.1007
      3 C          -0.1682   -0.5607   -0.2334 C.ar    1  LIG1        0.1494
      4 C          -1.0865    0.3895    0.1332 C.ar    1  LIG1        0.0699
      5 S          -2.6049   -0.3290    0.5613 S.2     1  LIG1       -0.0910
      6 H          -2.6529   -2.7664    0.3744 H       1  LIG1        0.0708
      7 N           0.6391   -4.0104   -0.7459 N.1     1  LIG1       -0.1907
      8 C           0.0392   -3.0659   -0.4939 C.1     1  LIG1        0.1034
      9 O           1.0762   -0.3412   -0.7073 O.3     1  LIG1       -0.5043
     10 H           1.6815   -0.0434   -0.0092 H       1  LIG1        0.2922
     11 C          -0.9054    1.8376    0.1538 C.ar    1  LIG1        0.0511
     12 C           0.1923    2.5388    0.5806 C.ar    1  LIG1        0.1090
     13 C           0.0522    3.9634    0.4616 C.ar    1  LIG1        0.1501
     14 C          -1.1720    4.3107   -0.0505 C.ar    1  LIG1        0.0705
     15 S          -2.1222    2.9068   -0.4297 S.2     1  LIG1       -0.0820
     16 N           2.2497    1.3325    1.5685 N.1     1  LIG1       -0.1907
     17 C           1.3487    1.9054    1.1445 C.1     1  LIG1        0.1040
     18 O           1.0096    4.7814    0.9366 O.3     1  LIG1       -0.5043
     19 H           1.3573    5.3771    0.2536 H       1  LIG1        0.2922
     20 C          -1.7221    5.6522   -0.2121 C.ar    1  LIG1        0.0511
     21 C          -1.0813    6.7779   -0.6604 C.ar    1  LIG1        0.1090
     22 C          -1.9058    7.9547   -0.6620 C.ar    1  LIG1        0.1501
     23 C          -3.1743    7.6832   -0.2187 C.ar    1  LIG1        0.0705
     24 S          -3.3462    6.0180    0.2360 S.2     1  LIG1       -0.0820
     25 N           1.3752    6.6769   -1.4478 N.1     1  LIG1       -0.1907
     26 C           0.2766    6.7627   -1.1210 C.1     1  LIG1        0.1040
     27 O          -1.4357    9.1130   -1.1636 O.3     1  LIG1       -0.5043
     28 H          -1.4623    9.8305   -0.5107 H       1  LIG1        0.2922
     29 C          -4.3173    8.5912   -0.1596 C.ar    1  LIG1        0.0505
     30 C          -4.3277    9.8994    0.2515 C.ar    1  LIG1        0.1084
     31 C          -5.6250   10.5113    0.1629 C.ar    1  LIG1        0.1418
     32 C          -6.5654    9.6464   -0.2969 C.ar    1  LIG1        0.0191
     33 S          -5.8901    8.0984   -0.6536 S.2     1  LIG1       -0.0910
     34 H          -7.6164    9.8304   -0.4481 H       1  LIG1        0.0731
     35 N          -2.1749   11.0366    1.1065 N.1     1  LIG1       -0.1907
     36 C          -3.1590   10.5642    0.7461 C.1     1  LIG1        0.1040
     37 O          -5.7646   11.7991    0.5392 O.3     1  LIG1       -0.5049
     38 H          -6.6765   12.0964    0.4496 H       1  LIG1        0.2922
@<TRIPOS>BOND
     1    25    26    3
     2    27    22    1
     3    27    28    1
     4    26    21    1
     5     7     8    3
     6     9     3    1
     7     9    10    1
     8    22    21   ar
     9    22    23   ar
    10    21    20   ar
    11    33    32   ar
    12    33    29   ar
    13     8     2    1
    14    34    32    1
    15    15    14   ar
    16    15    11   ar
    17    32    31   ar
    18     3     2   ar
    19     3     4   ar
    20    23    29    1
    21    23    24   ar
    22    20    14    1
    23    20    24   ar
    24     2     1   ar
    25    29    30   ar
    26    14    13   ar
    27     4    11    1
    28     4     5   ar
    29    11    12   ar
    30    31    30   ar
    31    31    37    1
    32     1     6    1
    33     1     5   ar
    34    30    36    1
    35    19    18    1
    36    38    37    1
    37    13    12   ar
    38    13    18    1
    39    12    17    1
    40    36    35    3
    41    17    16    3
