@<TRIPOS>MOLECULE
mol_data/opt/m06hf/geoms/mol2/5df5df5df-5df-.out
 38 41 0 0 0
SMALL
GASTEIGER

@<TRIPOS>ATOM
      1 C          -1.5042   -1.8755    1.1705 C.ar    1  LIG1       -0.0027
      2 C          -0.8376   -1.8569   -0.0178 C.ar    1  LIG1        0.1007
      3 C          -0.4715   -0.5288   -0.4353 C.ar    1  LIG1        0.1494
      4 C          -0.8780    0.4176    0.4699 C.ar    1  LIG1        0.0699
      5 S          -1.6877   -0.3055    1.8210 S.2     1  LIG1       -0.0910
      6 H          -1.8745   -2.7409    1.6959 H       1  LIG1        0.0708
      7 N          -0.2657   -3.9709   -1.3928 N.1     1  LIG1       -0.1907
      8 C          -0.5205   -3.0300   -0.7888 C.1     1  LIG1        0.1034
      9 O           0.1083   -0.3078   -1.6334 O.3     1  LIG1       -0.5043
     10 H           1.0174    0.0191   -1.5395 H       1  LIG1        0.2922
     11 C          -0.7399    1.8660    0.3492 C.ar    1  LIG1        0.0511
     12 C           0.3574    2.5672   -0.0780 C.ar    1  LIG1        0.1090
     13 C           0.1620    3.9900   -0.1063 C.ar    1  LIG1        0.1501
     14 C          -1.0936    4.3363    0.3222 C.ar    1  LIG1        0.0705
     15 S          -2.0291    2.9349    0.7480 S.2     1  LIG1       -0.0820
     16 N           2.5355    1.3449   -0.7294 N.1     1  LIG1       -0.1907
     17 C           1.5896    1.9289   -0.4387 C.1     1  LIG1        0.1040
     18 O           1.1225    4.7985   -0.5918 O.3     1  LIG1       -0.5043
     19 H           1.4122    5.4592    0.0574 H       1  LIG1        0.2922
     20 C          -1.6836    5.6708    0.3648 C.ar    1  LIG1        0.0511
     21 C          -1.0920    6.8391    0.7696 C.ar    1  LIG1        0.1090
     22 C          -1.9382    7.9929    0.6442 C.ar    1  LIG1        0.1501
     23 C          -3.1734    7.6609    0.1518 C.ar    1  LIG1        0.0705
     24 S          -3.2838    5.9663   -0.1983 S.2     1  LIG1       -0.0820
     25 N           1.3207    6.8528    1.6887 N.1     1  LIG1       -0.1907
     26 C           0.2392    6.8875    1.3006 C.1     1  LIG1        0.1040
     27 O          -1.5207    9.1951    1.0861 O.3     1  LIG1       -0.5043
     28 H          -1.5196    9.8611    0.3804 H       1  LIG1        0.2922
     29 C          -4.3237    8.5396   -0.0519 C.ar    1  LIG1        0.0505
     30 C          -4.3247    9.8020   -0.5865 C.ar    1  LIG1        0.1084
     31 C          -5.6328   10.3937   -0.6418 C.ar    1  LIG1        0.1418
     32 C          -6.5894    9.5580   -0.1615 C.ar    1  LIG1        0.0191
     33 S          -5.9181    8.0661    0.3875 S.2     1  LIG1       -0.0910
     34 H          -7.6505    9.7348   -0.0969 H       1  LIG1        0.0731
     35 N          -2.1320   10.8969   -1.3939 N.1     1  LIG1       -0.1907
     36 C          -3.1335   10.4408   -1.0617 C.1     1  LIG1        0.1040
     37 O          -5.7644   11.6354   -1.1519 O.3     1  LIG1       -0.5049
     38 H          -6.6791   11.9364   -1.1208 H       1  LIG1        0.2922
@<TRIPOS>BOND
     1     9    10    1
     2     9     3    1
     3    35    36    3
     4     7     8    3
     5    37    38    1
     6    37    31    1
     7    36    30    1
     8     8     2    1
     9    16    17    3
    10    31    30   ar
    11    31    32   ar
    12    18    13    1
    13    18    19    1
    14    30    29   ar
    15    17    12    1
    16     3     2   ar
    17     3     4   ar
    18    24    23   ar
    19    24    20   ar
    20    32    34    1
    21    32    33   ar
    22    13    12   ar
    23    13    14   ar
    24    12    11   ar
    25    29    23    1
    26    29    33   ar
    27     2     1   ar
    28    23    22   ar
    29    14    20    1
    30    14    15   ar
    31    11     4    1
    32    11    15   ar
    33    20    21   ar
    34    28    27    1
    35     4     5   ar
    36    22    21   ar
    37    22    27    1
    38    21    26    1
    39     1     6    1
    40     1     5   ar
    41    26    25    3
