@<TRIPOS>MOLECULE
mol_data/opt/m06hf/geoms/mol2/5df5df-.out
 20 21 0 0 0
SMALL
GASTEIGER

@<TRIPOS>ATOM
      1 C          -2.0096   -1.7702    0.5135 C.ar    1  LIG1       -0.0027
      2 C          -0.7701   -1.7729   -0.0518 C.ar    1  LIG1        0.1007
      3 C          -0.2543   -0.4483   -0.2821 C.ar    1  LIG1        0.1494
      4 C          -1.1373    0.5180    0.1251 C.ar    1  LIG1        0.0699
      5 S          -2.5740   -0.1809    0.7951 S.2     1  LIG1       -0.0911
      6 H          -2.6024   -2.6280    0.7872 H       1  LIG1        0.0708
      7 N           0.5319   -3.9193   -0.6736 N.1     1  LIG1       -0.1907
      8 C          -0.0412   -2.9643   -0.3997 C.1     1  LIG1        0.1034
      9 O           0.9220   -0.2590   -0.9171 O.3     1  LIG1       -0.5043
     10 H           1.5814    0.1534   -0.3372 H       1  LIG1        0.2922
     11 C          -0.9920    1.9659   -0.0060 C.ar    1  LIG1        0.0504
     12 C           0.1323    2.7173    0.2206 C.ar    1  LIG1        0.1084
     13 C          -0.0617    4.1190   -0.0310 C.ar    1  LIG1        0.1418
     14 C          -1.3312    4.3949   -0.4272 C.ar    1  LIG1        0.0191
     15 S          -2.2936    2.9652   -0.5249 S.2     1  LIG1       -0.0910
     16 H          -1.7542    5.3564   -0.6672 H       1  LIG1        0.0731
     17 N           2.3195    1.6359    1.0646 N.1     1  LIG1       -0.1907
     18 C           1.3598    2.1522    0.6987 C.1     1  LIG1        0.1040
     19 O           0.9717    4.9668    0.1581 O.3     1  LIG1       -0.5049
     20 H           0.7158    5.8759   -0.0305 H       1  LIG1        0.2922
@<TRIPOS>BOND
     1     9    10    1
     2     9     3    1
     3     7     8    3
     4    16    14    1
     5    15    14   ar
     6    15    11   ar
     7    14    13   ar
     8     8     2    1
     9     3     2   ar
    10     3     4   ar
    11     2     1   ar
    12    13    19    1
    13    13    12   ar
    14    20    19    1
    15    11     4    1
    16    11    12   ar
    17     4     5   ar
    18    12    18    1
    19     1     6    1
    20     1     5   ar
    21    18    17    3
