@<TRIPOS>MOLECULE
mol_data/opt/m06hf/geoms/mol2/5df5df-5df-5df-.out
 38 41 0 0 0
SMALL
GASTEIGER

@<TRIPOS>ATOM
      1 C          -2.0229   -1.9034   -0.2285 C.ar    1  LIG1       -0.0027
      2 C          -0.7252   -1.8880    0.1856 C.ar    1  LIG1        0.1007
      3 C          -0.1724   -0.5604    0.2529 C.ar    1  LIG1        0.1494
      4 C          -1.0872    0.3891   -0.1241 C.ar    1  LIG1        0.0699
      5 S          -2.6029   -0.3299   -0.5609 S.2     1  LIG1       -0.0910
      6 H          -2.6542   -2.7665   -0.3653 H       1  LIG1        0.0708
      7 N           0.6285   -4.0086    0.7849 N.1     1  LIG1       -0.1907
      8 C           0.0312   -3.0647    0.5246 C.1     1  LIG1        0.1034
      9 O           1.0685   -0.3400    0.7353 O.3     1  LIG1       -0.5043
     10 H           1.6793   -0.0454    0.0406 H       1  LIG1        0.2922
     11 C          -0.9050    1.8370   -0.1489 C.ar    1  LIG1        0.0511
     12 C           0.1962    2.5358   -0.5703 C.ar    1  LIG1        0.1090
     13 C           0.0563    3.9609   -0.4579 C.ar    1  LIG1        0.1501
     14 C          -1.1713    4.3111    0.0442 C.ar    1  LIG1        0.0705
     15 S          -2.1251    2.9092    0.4220 S.2     1  LIG1       -0.0820
     16 N           2.2600    1.3243   -1.5385 N.1     1  LIG1       -0.1907
     17 C           1.3562    1.8995   -1.1235 C.1     1  LIG1        0.1040
     18 O           1.0177    4.7762   -0.9295 O.3     1  LIG1       -0.5043
     19 H           1.3599    5.3757   -0.2470 H       1  LIG1        0.2922
     20 C          -1.7222    5.6534    0.1956 C.ar    1  LIG1        0.0511
     21 C          -1.0843    6.7815    0.6422 C.ar    1  LIG1        0.1090
     22 C          -1.9086    7.9582    0.6324 C.ar    1  LIG1        0.1501
     23 C          -3.1743    7.6844    0.1826 C.ar    1  LIG1        0.0705
     24 S          -3.3435    6.0170   -0.2645 S.2     1  LIG1       -0.0820
     25 N           1.3669    6.6845    1.4468 N.1     1  LIG1       -0.1907
     26 C           0.2706    6.7686    1.1121 C.1     1  LIG1        0.1040
     27 O          -1.4416    9.1192    1.1307 O.3     1  LIG1       -0.5043
     28 H          -1.4644    9.8333    0.4739 H       1  LIG1        0.2922
     29 C          -4.3169    8.5921    0.1117 C.ar    1  LIG1        0.0505
     30 C          -4.3246    9.8981   -0.3066 C.ar    1  LIG1        0.1084
     31 C          -5.6223   10.5107   -0.2288 C.ar    1  LIG1        0.1418
     32 C          -6.5655    9.6485    0.2303 C.ar    1  LIG1        0.0191
     33 S          -5.8926    8.1023    0.5993 S.2     1  LIG1       -0.0910
     34 H          -7.6172    9.8336    0.3746 H       1  LIG1        0.0731
     35 N          -2.1665   11.0304   -1.1547 N.1     1  LIG1       -0.1907
     36 C          -3.1529   10.5600   -0.7979 C.1     1  LIG1        0.1040
     37 O          -5.7593   11.7965   -0.6128 O.3     1  LIG1       -0.5049
     38 H          -6.6719   12.0941   -0.5310 H       1  LIG1        0.2922
@<TRIPOS>BOND
     1    16    17    3
     2    35    36    3
     3    17    12    1
     4    18    13    1
     5    18    19    1
     6    36    30    1
     7    37    38    1
     8    37    31    1
     9    12    13   ar
    10    12    11   ar
    11     5     1   ar
    12     5     4   ar
    13    13    14   ar
    14     6     1    1
    15    30    31   ar
    16    30    29   ar
    17    24    23   ar
    18    24    20   ar
    19    31    32   ar
    20     1     2   ar
    21    11     4    1
    22    11    15   ar
    23     4     3   ar
    24    10     9    1
    25    14    20    1
    26    14    15   ar
    27    29    23    1
    28    29    33   ar
    29    23    22   ar
    30     2     3   ar
    31     2     8    1
    32    20    21   ar
    33    32    34    1
    34    32    33   ar
    35     3     9    1
    36    28    27    1
    37     8     7    3
    38    22    21   ar
    39    22    27    1
    40    21    26    1
    41    26    25    3
