@<TRIPOS>MOLECULE
mol_data/opt/m06hf/geoms/mol2/5df5df-5df5df-.out
 38 41 0 0 0
SMALL
GASTEIGER

@<TRIPOS>ATOM
      1 C          -2.0800   -1.8492   -0.3679 C.ar    1  LIG1       -0.0027
      2 C          -0.7512   -1.8136   -0.6663 C.ar    1  LIG1        0.1007
      3 C          -0.1709   -0.5070   -0.4959 C.ar    1  LIG1        0.1494
      4 C          -1.0989    0.4072   -0.0652 C.ar    1  LIG1        0.0699
      5 S          -2.6586   -0.3247    0.1413 S.2     1  LIG1       -0.0910
      6 H          -2.7344   -2.7049   -0.4089 H       1  LIG1        0.0708
      7 N           0.6098   -3.8670   -1.4525 N.1     1  LIG1       -0.1907
      8 C           0.0103   -2.9523   -1.1072 C.1     1  LIG1        0.1034
      9 O           1.1108   -0.2706   -0.8394 O.3     1  LIG1       -0.5043
     10 H           1.6473    0.0046   -0.0793 H       1  LIG1        0.2922
     11 C          -0.9070    1.8371    0.1528 C.ar    1  LIG1        0.0511
     12 C           0.1613    2.4662    0.7371 C.ar    1  LIG1        0.1090
     13 C           0.0452    3.8981    0.7723 C.ar    1  LIG1        0.1501
     14 C          -1.1338    4.3229    0.2155 C.ar    1  LIG1        0.0705
     15 S          -2.0680    2.9910   -0.3877 S.2     1  LIG1       -0.0820
     16 N           2.1275    1.1098    1.7164 N.1     1  LIG1       -0.1907
     17 C           1.2669    1.7492    1.3028 C.1     1  LIG1        0.1040
     18 O           0.9760    4.6395    1.4017 O.3     1  LIG1       -0.5043
     19 H           1.3705    5.3066    0.8176 H       1  LIG1        0.2922
     20 C          -1.6537    5.6861    0.1605 C.ar    1  LIG1        0.0511
     21 C          -0.9718    6.8363   -0.1408 C.ar    1  LIG1        0.1090
     22 C          -1.7822    8.0214   -0.0895 C.ar    1  LIG1        0.1501
     23 C          -3.0805    7.7318    0.2390 C.ar    1  LIG1        0.0705
     24 S          -3.3073    6.0299    0.4908 S.2     1  LIG1       -0.0820
     25 N           1.5398    6.7698   -0.7325 N.1     1  LIG1       -0.1907
     26 C           0.4185    6.8426   -0.4903 C.1     1  LIG1        0.1040
     27 O          -1.2323    9.2373   -0.2778 O.3     1  LIG1       -0.5043
     28 H          -1.6089    9.6898   -1.0497 H       1  LIG1        0.2922
     29 C          -4.1809    8.6723    0.4387 C.ar    1  LIG1        0.0505
     30 C          -4.4937    9.7642   -0.3293 C.ar    1  LIG1        0.1084
     31 C          -5.6296   10.4947    0.1606 C.ar    1  LIG1        0.1418
     32 C          -6.1556    9.9273    1.2770 C.ar    1  LIG1        0.0191
     33 S          -5.2681    8.5297    1.7632 S.2     1  LIG1       -0.0910
     34 H          -7.0126   10.2541    1.8430 H       1  LIG1        0.0731
     35 N          -3.1186   10.3337   -2.4381 N.1     1  LIG1       -0.1907
     36 C          -3.7655   10.1077   -1.5151 C.1     1  LIG1        0.1040
     37 O          -6.0393   11.5914   -0.5097 O.3     1  LIG1       -0.5049
     38 H          -6.7857   12.0144   -0.0716 H       1  LIG1        0.2922
@<TRIPOS>BOND
     1    35    36    3
     2    36    30    1
     3     7     8    3
     4     8     2    1
     5    28    27    1
     6     9     3    1
     7     9    10    1
     8    25    26    3
     9     2     3   ar
    10     2     1   ar
    11    37    38    1
    12    37    31    1
    13     3     4   ar
    14    26    21    1
    15     6     1    1
    16    15    11   ar
    17    15    14   ar
    18     1     5   ar
    19    30    31   ar
    20    30    29   ar
    21    27    22    1
    22    21    22   ar
    23    21    20   ar
    24    22    23   ar
    25     4     5   ar
    26     4    11    1
    27    11    12   ar
    28    20    14    1
    29    20    24   ar
    30    31    32   ar
    31    14    13   ar
    32    23    29    1
    33    23    24   ar
    34    29    33   ar
    35    12    13   ar
    36    12    17    1
    37    13    18    1
    38    19    18    1
    39    32    33   ar
    40    32    34    1
    41    17    16    3
