@<TRIPOS>MOLECULE
mol_data/opt/m06hf/geoms/mol2/5df5df-5df-5df.out
 38 41 0 0 0
SMALL
GASTEIGER

@<TRIPOS>ATOM
      1 C          -1.4652   -1.6745    1.6785 C.ar    1  LIG1       -0.0027
      2 C          -0.8724   -1.8317    0.4617 C.ar    1  LIG1        0.1007
      3 C          -0.5212   -0.5807   -0.1581 C.ar    1  LIG1        0.1494
      4 C          -0.8649    0.4884    0.6284 C.ar    1  LIG1        0.0699
      5 S          -1.5979   -0.0268    2.1134 S.2     1  LIG1       -0.0910
      6 H          -1.8112   -2.4524    2.3400 H       1  LIG1        0.0708
      7 N          -0.4151   -4.1278   -0.6360 N.1     1  LIG1       -0.1907
      8 C          -0.6178   -3.1065   -0.1555 C.1     1  LIG1        0.1034
      9 O          -0.0107   -0.5381   -1.4064 O.3     1  LIG1       -0.5043
     10 H           0.9018   -0.2079   -1.4112 H       1  LIG1        0.2922
     11 C          -0.7165    1.9057    0.3098 C.ar    1  LIG1        0.0511
     12 C           0.3610    2.5280   -0.2651 C.ar    1  LIG1        0.1090
     13 C           0.1851    3.9422   -0.4454 C.ar    1  LIG1        0.1501
     14 C          -1.0354    4.3619    0.0165 C.ar    1  LIG1        0.0705
     15 S          -1.9631    3.0406    0.6527 S.2     1  LIG1       -0.0820
     16 N           2.4826    1.1956   -0.8884 N.1     1  LIG1       -0.1907
     17 C           1.5608    1.8265   -0.6182 C.1     1  LIG1        0.1040
     18 O           1.1243    4.6759   -1.0734 O.3     1  LIG1       -0.5043
     19 H           1.4893    5.3693   -0.5006 H       1  LIG1        0.2922
     20 C          -1.5902    5.7121   -0.0312 C.ar    1  LIG1        0.0511
     21 C          -0.9532    6.8903    0.2595 C.ar    1  LIG1        0.1090
     22 C          -1.7854    8.0519    0.1119 C.ar    1  LIG1        0.1501
     23 C          -3.0554    7.7167   -0.2796 C.ar    1  LIG1        0.0705
     24 S          -3.2279    6.0000   -0.4751 S.2     1  LIG1       -0.0820
     25 N           1.5179    6.9046    1.0047 N.1     1  LIG1       -0.1907
     26 C           0.4130    6.9427    0.6910 C.1     1  LIG1        0.1040
     27 O          -1.2732    9.2866    0.2820 O.3     1  LIG1       -0.5043
     28 H          -1.7142    9.7678    1.0006 H       1  LIG1        0.2922
     29 C          -4.1669    8.6178   -0.5768 C.ar    1  LIG1        0.0505
     30 C          -4.5514    9.7288    0.1292 C.ar    1  LIG1        0.1084
     31 C          -5.6834   10.4016   -0.4455 C.ar    1  LIG1        0.1418
     32 C          -6.1349    9.7736   -1.5618 C.ar    1  LIG1        0.0191
     33 S          -5.1812    8.3877   -1.9464 S.2     1  LIG1       -0.0910
     34 H          -6.9713   10.0497   -2.1829 H       1  LIG1        0.0731
     35 N          -3.3066   10.4198    2.2819 N.1     1  LIG1       -0.1907
     36 C          -3.8961   10.1399    1.3355 C.1     1  LIG1        0.1040
     37 O          -6.1599   11.5103    0.1580 O.3     1  LIG1       -0.5049
     38 H          -6.8984   11.8880   -0.3316 H       1  LIG1        0.2922
@<TRIPOS>BOND
     1    34    32    1
     2    33    32   ar
     3    33    29   ar
     4    32    31   ar
     5    10     9    1
     6     9     3    1
     7    18    19    1
     8    18    13    1
     9    16    17    3
    10     7     8    3
    11    17    12    1
    12    29    23    1
    13    29    30   ar
    14    24    23   ar
    15    24    20   ar
    16    31    30   ar
    17    31    37    1
    18    13    12   ar
    19    13    14   ar
    20    38    37    1
    21    23    22   ar
    22    12    11   ar
    23     3     2   ar
    24     3     4   ar
    25     8     2    1
    26    20    14    1
    27    20    21   ar
    28    14    15   ar
    29    22    21   ar
    30    22    27    1
    31    30    36    1
    32    21    26    1
    33    27    28    1
    34    11     4    1
    35    11    15   ar
    36     2     1   ar
    37     4     5   ar
    38    26    25    3
    39    36    35    3
    40     1     5   ar
    41     1     6    1
