@<TRIPOS>MOLECULE
mol_data/opt/m06hf/geoms/mol2/5df5df5df-5df.out
 38 41 0 0 0
SMALL
GASTEIGER

@<TRIPOS>ATOM
      1 C          -1.4724   -1.6709    1.6755 C.ar    1  LIG1       -0.0027
      2 C          -0.8724   -1.8307    0.4627 C.ar    1  LIG1        0.1007
      3 C          -0.5181   -0.5811   -0.1581 C.ar    1  LIG1        0.1494
      4 C          -0.8671    0.4898    0.6236 C.ar    1  LIG1        0.0699
      5 S          -1.6089   -0.0222    2.1054 S.2     1  LIG1       -0.0910
      6 H          -1.8218   -2.4473    2.3370 H       1  LIG1        0.0708
      7 N          -0.4070   -4.1294   -0.6263 N.1     1  LIG1       -0.1907
      8 C          -0.6133   -3.1069   -0.1497 C.1     1  LIG1        0.1034
      9 O          -0.0001   -0.5415   -1.4034 O.3     1  LIG1       -0.5043
     10 H           0.9121   -0.2103   -1.4037 H       1  LIG1        0.2922
     11 C          -0.7177    1.9063    0.3025 C.ar    1  LIG1        0.0511
     12 C           0.3627    2.5282   -0.2675 C.ar    1  LIG1        0.1090
     13 C           0.1869    3.9417   -0.4520 C.ar    1  LIG1        0.1501
     14 C          -1.0365    4.3616    0.0016 C.ar    1  LIG1        0.0705
     15 S          -1.9671    3.0412    0.6351 S.2     1  LIG1       -0.0820
     16 N           2.4888    1.1955   -0.8751 N.1     1  LIG1       -0.1907
     17 C           1.5651    1.8266   -0.6119 C.1     1  LIG1        0.1040
     18 O           1.1290    4.6754   -1.0761 O.3     1  LIG1       -0.5043
     19 H           1.4930    5.3672   -0.5008 H       1  LIG1        0.2922
     20 C          -1.5912    5.7117   -0.0517 C.ar    1  LIG1        0.0511
     21 C          -0.9559    6.8903    0.2412 C.ar    1  LIG1        0.1090
     22 C          -1.7869    8.0517    0.0867 C.ar    1  LIG1        0.1501
     23 C          -3.0545    7.7161   -0.3124 C.ar    1  LIG1        0.0705
     24 S          -3.2260    5.9991   -0.5061 S.2     1  LIG1       -0.0820
     25 N           1.5103    6.9050    1.0027 N.1     1  LIG1       -0.1907
     26 C           0.4075    6.9430    0.6815 C.1     1  LIG1        0.1040
     27 O          -1.2751    9.2863    0.2584 O.3     1  LIG1       -0.5043
     28 H          -1.7227    9.7702    0.9710 H       1  LIG1        0.2922
     29 C          -4.1641    8.6165   -0.6185 C.ar    1  LIG1        0.0505
     30 C          -4.5532    9.7293    0.0823 C.ar    1  LIG1        0.1084
     31 C          -5.6815   10.4006   -0.5012 C.ar    1  LIG1        0.1418
     32 C          -6.1259    9.7698   -1.6188 C.ar    1  LIG1        0.0191
     33 S          -5.1698    8.3831   -1.9939 S.2     1  LIG1       -0.0910
     34 H          -6.9583   10.0444   -2.2459 H       1  LIG1        0.0731
     35 N          -3.3219   10.4255    2.2411 N.1     1  LIG1       -0.1907
     36 C          -3.9056   10.1433    1.2918 C.1     1  LIG1        0.1040
     37 O          -6.1617   11.5108    0.0965 O.3     1  LIG1       -0.5049
     38 H          -6.8977   11.8868   -0.3982 H       1  LIG1        0.2922
@<TRIPOS>BOND
     1    34    32    1
     2    33    32   ar
     3    33    29   ar
     4    32    31   ar
     5    10     9    1
     6     9     3    1
     7    18    19    1
     8    18    13    1
     9    16    17    3
    10     7     8    3
    11    29    23    1
    12    29    30   ar
    13    17    12    1
    14    24    23   ar
    15    24    20   ar
    16    31    30   ar
    17    31    37    1
    18    13    12   ar
    19    13    14   ar
    20    38    37    1
    21    23    22   ar
    22    12    11   ar
    23     3     2   ar
    24     3     4   ar
    25     8     2    1
    26    20    14    1
    27    20    21   ar
    28    14    15   ar
    29    30    36    1
    30    22    21   ar
    31    22    27    1
    32    21    26    1
    33    27    28    1
    34    11     4    1
    35    11    15   ar
    36     2     1   ar
    37     4     5   ar
    38    26    25    3
    39    36    35    3
    40     1     5   ar
    41     1     6    1
