@<TRIPOS>MOLECULE
mol_data/opt/m06hf/geoms/mol2/5df5df.out
 20 21 0 0 0
SMALL
GASTEIGER

@<TRIPOS>ATOM
      1 C          -2.0135   -1.7702    0.5078 C.ar    1  LIG1       -0.0027
      2 C          -0.7692   -1.7729   -0.0473 C.ar    1  LIG1        0.1007
      3 C          -0.2518   -0.4485   -0.2737 C.ar    1  LIG1        0.1494
      4 C          -1.1382    0.5180    0.1256 C.ar    1  LIG1        0.0699
      5 S          -2.5804   -0.1809    0.7840 S.2     1  LIG1       -0.0911
      6 H          -2.6084   -2.6280    0.7769 H       1  LIG1        0.0708
      7 N           0.5381   -3.9195   -0.6574 N.1     1  LIG1       -0.1907
      8 C          -0.0373   -2.9644   -0.3886 C.1     1  LIG1        0.1034
      9 O           0.9298   -0.2592   -0.8991 O.3     1  LIG1       -0.5043
     10 H           1.5842    0.1536   -0.3139 H       1  LIG1        0.2922
     11 C          -0.9921    1.9658   -0.0048 C.ar    1  LIG1        0.0504
     12 C           0.1302    2.7174    0.2308 C.ar    1  LIG1        0.1084
     13 C          -0.0619    4.1190   -0.0230 C.ar    1  LIG1        0.1418
     14 C          -1.3282    4.3946   -0.4298 C.ar    1  LIG1        0.0191
     15 S          -2.2895    2.9647   -0.5349 S.2     1  LIG1       -0.0910
     16 H          -1.7492    5.3559   -0.6738 H       1  LIG1        0.0731
     17 N           2.3104    1.6367    1.0934 N.1     1  LIG1       -0.1907
     18 C           1.3537    2.1527    0.7193 C.1     1  LIG1        0.1040
     19 O           0.9697    4.9670    0.1743 O.3     1  LIG1       -0.5049
     20 H           0.7153    5.8761   -0.0167 H       1  LIG1        0.2922
@<TRIPOS>BOND
     1     9    10    1
     2     9     3    1
     3    16    14    1
     4     7     8    3
     5    15    14   ar
     6    15    11   ar
     7    14    13   ar
     8     8     2    1
     9     3     2   ar
    10     3     4   ar
    11     2     1   ar
    12    13    19    1
    13    13    12   ar
    14    20    19    1
    15    11     4    1
    16    11    12   ar
    17     4     5   ar
    18    12    18    1
    19     1     6    1
    20     1     5   ar
    21    18    17    3
