@<TRIPOS>MOLECULE
mol_data/opt/m06hf/geoms/mol2/5df5df5df-.out
 29 31 0 0 0
SMALL
GASTEIGER

@<TRIPOS>ATOM
      1 C          -1.8100   -1.7727    1.0525 C.ar    1  LIG1       -0.0027
      2 C          -0.8328   -1.8377    0.1058 C.ar    1  LIG1        0.1007
      3 C          -0.3614   -0.5408   -0.3056 C.ar    1  LIG1        0.1494
      4 C          -1.0116    0.4680    0.3579 C.ar    1  LIG1        0.0699
      5 S          -2.1760   -0.1592    1.4792 S.2     1  LIG1       -0.0910
      6 H          -2.3163   -2.5999    1.5231 H       1  LIG1        0.0708
      7 N           0.0778   -4.0513   -0.8723 N.1     1  LIG1       -0.1907
      8 C          -0.3207   -3.0654   -0.4432 C.1     1  LIG1        0.1034
      9 O           0.5412   -0.4110   -1.2996 O.3     1  LIG1       -0.5043
     10 H           1.3746   -0.0266   -0.9853 H       1  LIG1        0.2922
     11 C          -0.8418    1.9063    0.1700 C.ar    1  LIG1        0.0511
     12 C           0.3309    2.5988    0.0200 C.ar    1  LIG1        0.1090
     13 C           0.1520    4.0147   -0.1461 C.ar    1  LIG1        0.1501
     14 C          -1.1717    4.3660   -0.1009 C.ar    1  LIG1        0.0705
     15 S          -2.1885    2.9763    0.1280 S.2     1  LIG1       -0.0820
     16 N           2.6132    1.3931    0.0889 N.1     1  LIG1       -0.1907
     17 C           1.6169    1.9651    0.0625 C.1     1  LIG1        0.1040
     18 O           1.2108    4.8123   -0.3892 O.3     1  LIG1       -0.5043
     19 H           1.3156    5.4966    0.2908 H       1  LIG1        0.2922
     20 C          -1.7531    5.6944   -0.2808 C.ar    1  LIG1        0.0505
     21 C          -1.2982    6.8831    0.2305 C.ar    1  LIG1        0.1084
     22 C          -2.0951    8.0120   -0.1622 C.ar    1  LIG1        0.1418
     23 C          -3.1423    7.6478   -0.9471 C.ar    1  LIG1        0.0191
     24 S          -3.1584    5.9470   -1.2421 S.2     1  LIG1       -0.0910
     25 H          -3.9043    8.2829   -1.3690 H       1  LIG1        0.0731
     26 N           0.7848    6.9668    1.7521 N.1     1  LIG1       -0.1907
     27 C          -0.1557    6.9701    1.0912 C.1     1  LIG1        0.1040
     28 O          -1.7484    9.2399    0.2774 O.3     1  LIG1       -0.5049
     29 H          -2.3284    9.9188   -0.0834 H       1  LIG1        0.2922
@<TRIPOS>BOND
     1    25    23    1
     2     9    10    1
     3     9     3    1
     4    24    23   ar
     5    24    20   ar
     6    23    22   ar
     7     7     8    3
     8     8     2    1
     9    18    13    1
    10    18    19    1
    11     3     2   ar
    12     3     4   ar
    13    20    14    1
    14    20    21   ar
    15    22    21   ar
    16    22    28    1
    17    13    14   ar
    18    13    12   ar
    19    14    15   ar
    20    29    28    1
    21    12    17    1
    22    12    11   ar
    23    17    16    3
    24     2     1   ar
    25    15    11   ar
    26    11     4    1
    27    21    27    1
    28     4     5   ar
    29     1     5   ar
    30     1     6    1
    31    27    26    3
