@<TRIPOS>MOLECULE
mol_data/opt/m06hf/geoms/mol2/5df5df-5df5df.out
 38 41 0 0 0
SMALL
GASTEIGER

@<TRIPOS>ATOM
      1 C          -2.0282   -1.9038    0.2293 C.ar    1  LIG1       -0.0027
      2 C          -0.7283   -1.8888   -0.1777 C.ar    1  LIG1        0.1007
      3 C          -0.1746   -0.5614   -0.2412 C.ar    1  LIG1        0.1494
      4 C          -1.0909    0.3883    0.1316 C.ar    1  LIG1        0.0699
      5 S          -2.6093   -0.3302    0.5598 S.2     1  LIG1       -0.0910
      6 H          -2.6607   -2.7667    0.3622 H       1  LIG1        0.0708
      7 N           0.6275   -4.0097   -0.7708 N.1     1  LIG1       -0.1907
      8 C           0.0293   -3.0657   -0.5132 C.1     1  LIG1        0.1034
      9 O           1.0690   -0.3413   -0.7168 O.3     1  LIG1       -0.5043
     10 H           1.6762   -0.0471   -0.0188 H       1  LIG1        0.2922
     11 C          -0.9081    1.8360    0.1582 C.ar    1  LIG1        0.0511
     12 C           0.1912    2.5342    0.5858 C.ar    1  LIG1        0.1090
     13 C           0.0526    3.9594    0.4734 C.ar    1  LIG1        0.1501
     14 C          -1.1722    4.3104   -0.0349 C.ar    1  LIG1        0.0705
     15 S          -2.1247    2.9092   -0.4184 S.2     1  LIG1       -0.0820
     16 N           2.2493    1.3211    1.5641 N.1     1  LIG1       -0.1907
     17 C           1.3480    1.8969    1.1446 C.1     1  LIG1        0.1040
     18 O           1.0119    4.7742    0.9501 O.3     1  LIG1       -0.5043
     19 H           1.3585    5.3730    0.2693 H       1  LIG1        0.2922
     20 C          -1.7213    5.6531   -0.1893 C.ar    1  LIG1        0.0511
     21 C          -1.0804    6.7804   -0.6336 C.ar    1  LIG1        0.1090
     22 C          -1.9037    7.9579   -0.6281 C.ar    1  LIG1        0.1501
     23 C          -3.1716    7.6854   -0.1836 C.ar    1  LIG1        0.0705
     24 S          -3.3442    6.0184    0.2636 S.2     1  LIG1       -0.0820
     25 N           1.3746    6.6805   -1.4259 N.1     1  LIG1       -0.1907
     26 C           0.2767    6.7659   -1.0969 C.1     1  LIG1        0.1040
     27 O          -1.4335    9.1180   -1.1253 O.3     1  LIG1       -0.5043
     28 H          -1.4586    9.8327   -0.4693 H       1  LIG1        0.2922
     29 C          -4.3137    8.5942   -0.1181 C.ar    1  LIG1        0.0505
     30 C          -4.3221    9.9006    0.2986 C.ar    1  LIG1        0.1084
     31 C          -5.6191   10.5140    0.2155 C.ar    1  LIG1        0.1418
     32 C          -6.5612    9.6519   -0.2461 C.ar    1  LIG1        0.0191
     33 S          -5.8880    8.1048   -0.6109 S.2     1  LIG1       -0.0910
     34 H          -7.6123    9.8375   -0.3943 H       1  LIG1        0.0731
     35 N          -2.1668   11.0323    1.1546 N.1     1  LIG1       -0.1907
     36 C          -3.1519   10.5622    0.7940 C.1     1  LIG1        0.1040
     37 O          -5.7567   11.8002    0.5976 O.3     1  LIG1       -0.5049
     38 H          -6.6685   12.0987    0.5112 H       1  LIG1        0.2922
@<TRIPOS>BOND
     1    25    26    3
     2    27    22    1
     3    27    28    1
     4    26    21    1
     5     7     8    3
     6     9     3    1
     7     9    10    1
     8    21    22   ar
     9    21    20   ar
    10    22    23   ar
    11    33    32   ar
    12    33    29   ar
    13     8     2    1
    14    15    14   ar
    15    15    11   ar
    16    34    32    1
    17    32    31   ar
    18     3     2   ar
    19     3     4   ar
    20    20    14    1
    21    20    24   ar
    22    23    29    1
    23    23    24   ar
    24     2     1   ar
    25    29    30   ar
    26    14    13   ar
    27     4    11    1
    28     4     5   ar
    29    11    12   ar
    30    31    30   ar
    31    31    37    1
    32     1     6    1
    33     1     5   ar
    34    19    18    1
    35    30    36    1
    36    13    12   ar
    37    13    18    1
    38    38    37    1
    39    12    17    1
    40    36    35    3
    41    17    16    3
