@<TRIPOS>MOLECULE
mol_data/opt/m06hf/geoms/mol2/5df5df-5df-.out
 29 31 0 0 0
SMALL
GASTEIGER

@<TRIPOS>ATOM
      1 C          -2.0286   -1.8525   -0.2059 C.ar    1  LIG1       -0.0027
      2 C          -0.7792   -1.8016    0.3354 C.ar    1  LIG1        0.1007
      3 C          -0.2242   -0.4733    0.3459 C.ar    1  LIG1        0.1494
      4 C          -1.0898    0.4415   -0.1983 C.ar    1  LIG1        0.0699
      5 S          -2.5558   -0.3148   -0.7325 S.2     1  LIG1       -0.0910
      6 H          -2.6476   -2.7260   -0.3337 H       1  LIG1        0.0708
      7 N           0.4695   -3.8651    1.2680 N.1     1  LIG1       -0.1907
      8 C          -0.0775   -2.9450    0.8562 C.1     1  LIG1        0.1034
      9 O           0.9655   -0.2265    0.9293 O.3     1  LIG1       -0.5043
     10 H           1.6164    0.1186    0.2981 H       1  LIG1        0.2922
     11 C          -0.9176    1.8886   -0.2836 C.ar    1  LIG1        0.0511
     12 C           0.2118    2.5857   -0.6241 C.ar    1  LIG1        0.1090
     13 C           0.0495    4.0125   -0.5792 C.ar    1  LIG1        0.1501
     14 C          -1.2222    4.3654   -0.2098 C.ar    1  LIG1        0.0705
     15 S          -2.1960    2.9686    0.1237 S.2     1  LIG1       -0.0820
     16 N           2.3699    1.3488   -1.3139 N.1     1  LIG1       -0.1907
     17 C           1.4264    1.9383   -1.0257 C.1     1  LIG1        0.1040
     18 O           1.0478    4.8240   -0.9802 O.3     1  LIG1       -0.5043
     19 H           1.3201    5.4392   -0.2809 H       1  LIG1        0.2922
     20 C          -1.7946    5.7075   -0.1331 C.ar    1  LIG1        0.0505
     21 C          -1.2138    6.8383    0.3816 C.ar    1  LIG1        0.1084
     22 C          -2.0536    8.0004    0.2864 C.ar    1  LIG1        0.1418
     23 C          -3.2545    7.7165   -0.2811 C.ar    1  LIG1        0.0191
     24 S          -3.3687    6.0541   -0.7344 S.2     1  LIG1       -0.0910
     25 H          -4.0769    8.3897   -0.4608 H       1  LIG1        0.0731
     26 N           1.1555    6.7606    1.4012 N.1     1  LIG1       -0.1907
     27 C           0.0918    6.8362    0.9716 C.1     1  LIG1        0.1040
     28 O          -1.5950    9.1775    0.7606 O.3     1  LIG1       -0.5049
     29 H          -2.2265    9.8881    0.6063 H       1  LIG1        0.2922
@<TRIPOS>BOND
     1    16    17    3
     2    17    12    1
     3    18    13    1
     4    18    19    1
     5    24    23   ar
     6    24    20   ar
     7     5     1   ar
     8     5     4   ar
     9    12    13   ar
    10    12    11   ar
    11    13    14   ar
    12    25    23    1
    13     6     1    1
    14    11     4    1
    15    11    15   ar
    16    23    22   ar
    17    14    20    1
    18    14    15   ar
    19     1     2   ar
    20     4     3   ar
    21    20    21   ar
    22    22    21   ar
    23    22    28    1
    24    10     9    1
    25     2     3   ar
    26     2     8    1
    27     3     9    1
    28    21    27    1
    29    29    28    1
    30     8     7    3
    31    27    26    3
