@<TRIPOS>MOLECULE
mol_data/opt/m06hf/geoms/mol2/5df5df5df5df-.out
 38 41 0 0 0
SMALL
GASTEIGER

@<TRIPOS>ATOM
      1 C          -2.0421   -1.8873    0.2398 C.ar    1  LIG1       -0.0027
      2 C          -0.7391   -1.8896   -0.1568 C.ar    1  LIG1        0.1007
      3 C          -0.1679   -0.5694   -0.2221 C.ar    1  LIG1        0.1494
      4 C          -1.0762    0.3935    0.1387 C.ar    1  LIG1        0.0699
      5 S          -2.6065   -0.3061    0.5606 S.2     1  LIG1       -0.0910
      6 H          -2.6850   -2.7424    0.3727 H       1  LIG1        0.0708
      7 N           0.5934   -4.0312   -0.7272 N.1     1  LIG1       -0.1907
      8 C           0.0066   -3.0775   -0.4797 C.1     1  LIG1        0.1034
      9 O           1.0824   -0.3801   -0.6884 O.3     1  LIG1       -0.5043
     10 H           1.6699    0.0032   -0.0177 H       1  LIG1        0.2922
     11 C          -0.8885    1.8408    0.1518 C.ar    1  LIG1        0.0511
     12 C           0.2097    2.5443    0.5735 C.ar    1  LIG1        0.1090
     13 C           0.0711    3.9686    0.4491 C.ar    1  LIG1        0.1501
     14 C          -1.1536    4.3148   -0.0632 C.ar    1  LIG1        0.0705
     15 S          -2.1043    2.9092   -0.4365 S.2     1  LIG1       -0.0820
     16 N           2.2727    1.3413    1.5533 N.1     1  LIG1       -0.1907
     17 C           1.3684    1.9138    1.1353 C.1     1  LIG1        0.1040
     18 O           1.0321    4.7823    0.9215 O.3     1  LIG1       -0.5043
     19 H           1.3571    5.4027    0.2494 H       1  LIG1        0.2922
     20 C          -1.7079    5.6546   -0.2241 C.ar    1  LIG1        0.0511
     21 C          -1.0710    6.7852   -0.6660 C.ar    1  LIG1        0.1090
     22 C          -1.9007    7.9582   -0.6662 C.ar    1  LIG1        0.1501
     23 C          -3.1698    7.6790   -0.2297 C.ar    1  LIG1        0.0705
     24 S          -3.3359    6.0115    0.2181 S.2     1  LIG1       -0.0820
     25 N           1.3887    6.6994   -1.4452 N.1     1  LIG1       -0.1907
     26 C           0.2884    6.7786   -1.1222 C.1     1  LIG1        0.1040
     27 O          -1.4335    9.1210   -1.1602 O.3     1  LIG1       -0.5043
     28 H          -1.4670    9.8352   -0.5040 H       1  LIG1        0.2922
     29 C          -4.3169    8.5819   -0.1721 C.ar    1  LIG1        0.0505
     30 C          -4.3349    9.8871    0.2481 C.ar    1  LIG1        0.1084
     31 C          -5.6337   10.4949    0.1551 C.ar    1  LIG1        0.1418
     32 C          -6.5676    9.6300   -0.3176 C.ar    1  LIG1        0.0191
     33 S          -5.8843    8.0870   -0.6807 S.2     1  LIG1       -0.0910
     34 H          -7.6182    9.8113   -0.4747 H       1  LIG1        0.0731
     35 N          -2.1905   11.0259    1.1221 N.1     1  LIG1       -0.1907
     36 C          -3.1711   10.5525    0.7538 C.1     1  LIG1        0.1040
     37 O          -5.7806   11.7793    0.5401 O.3     1  LIG1       -0.5049
     38 H          -6.6929   12.0740    0.4458 H       1  LIG1        0.2922
@<TRIPOS>BOND
     1    25    26    3
     2    27    22    1
     3    27    28    1
     4    26    21    1
     5     7     8    3
     6     9     3    1
     7     9    10    1
     8    33    32   ar
     9    33    29   ar
    10    22    21   ar
    11    22    23   ar
    12    21    20   ar
    13     8     2    1
    14    34    32    1
    15    15    14   ar
    16    15    11   ar
    17    32    31   ar
    18    23    29    1
    19    23    24   ar
    20    20    14    1
    21    20    24   ar
    22     3     2   ar
    23     3     4   ar
    24    29    30   ar
    25     2     1   ar
    26    14    13   ar
    27     4    11    1
    28     4     5   ar
    29    11    12   ar
    30    31    30   ar
    31    31    37    1
    32     1     6    1
    33     1     5   ar
    34    30    36    1
    35    19    18    1
    36    38    37    1
    37    13    12   ar
    38    13    18    1
    39    12    17    1
    40    36    35    3
    41    17    16    3
