@<TRIPOS>MOLECULE
mol_data/opt/m06hf/geoms/mol2/5dg.out
 11 11 0 0 0
SMALL
GASTEIGER

@<TRIPOS>ATOM
      1 C          -2.1437   -1.7232    0.0001 C.ar    1  LIG1       -0.0059
      2 C          -0.7799   -1.6826   -0.0003 C.ar    1  LIG1        0.0719
      3 C          -0.2544   -0.3406   -0.0002 C.ar    1  LIG1        0.0292
      4 C          -1.2551    0.5796    0.0003 C.ar    1  LIG1       -0.0099
      5 S          -2.8130   -0.1536    0.0006 S.2     1  LIG1       -0.1027
      6 H          -2.7670   -2.6028    0.0002 H       1  LIG1        0.0706
      7 H          -1.1635    1.6539    0.0005 H       1  LIG1        0.0705
      8 N           0.7099   -3.7988   -0.0012 N.1     1  LIG1       -0.1908
      9 C           0.0441   -2.8640   -0.0008 C.1     1  LIG1        0.1008
     10 S           1.4919   -0.0455   -0.0006 S.3     1  LIG1       -0.1409
     11 H           1.3799    1.2845   -0.0004 H       1  LIG1        0.1072
@<TRIPOS>BOND
     1     8     9    3
     2     9     2    1
     3    10    11    1
     4    10     3    1
     5     2     3   ar
     6     2     1   ar
     7     3     4   ar
     8     1     6    1
     9     1     5   ar
    10     4     7    1
    11     4     5   ar
