@<TRIPOS>MOLECULE
mol_data/opt/m06hf/geoms/mol2/5dg5dg5dg-.out
 29 31 0 0 0
SMALL
GASTEIGER

@<TRIPOS>ATOM
      1 C          -1.8128   -1.9500    0.4531 C.ar    1  LIG1       -0.0052
      2 C          -0.7325   -1.8210   -0.3686 C.ar    1  LIG1        0.0725
      3 C          -0.2766   -0.4604   -0.5064 C.ar    1  LIG1        0.0375
      4 C          -1.0465    0.3896    0.2374 C.ar    1  LIG1        0.0416
      5 S          -2.3085   -0.4454    1.0868 S.2     1  LIG1       -0.0937
      6 H          -2.3263   -2.8635    0.7071 H       1  LIG1        0.0707
      7 N           0.3803   -3.8136   -1.5873 N.1     1  LIG1       -0.1908
      8 C          -0.1162   -2.9346   -1.0426 C.1     1  LIG1        0.1008
      9 S           1.0773   -0.0855   -1.5694 S.3     1  LIG1       -0.1403
     10 H           1.0169    1.2389   -1.3871 H       1  LIG1        0.1072
     11 C          -0.8982    1.8428    0.3778 C.ar    1  LIG1        0.0460
     12 C           0.1761    2.5169    0.9010 C.ar    1  LIG1        0.0808
     13 C           0.0167    3.9459    0.9018 C.ar    1  LIG1        0.0381
     14 C          -1.1954    4.3049    0.3795 C.ar    1  LIG1        0.0422
     15 S          -2.1200    2.9341   -0.1313 S.2     1  LIG1       -0.0847
     16 N           2.2580    1.3278    1.8704 N.1     1  LIG1       -0.1908
     17 C           1.3304    1.8467    1.4386 C.1     1  LIG1        0.1014
     18 S           1.2690    4.9827    1.5776 S.3     1  LIG1       -0.1402
     19 H           0.6705    6.1292    1.2323 H       1  LIG1        0.1072
     20 C          -1.7313    5.6653    0.2382 C.ar    1  LIG1        0.0454
     21 C          -1.2660    6.6579   -0.5868 C.ar    1  LIG1        0.0802
     22 C          -1.9973    7.8906   -0.4675 C.ar    1  LIG1        0.0298
     23 C          -3.0016    7.7790    0.4446 C.ar    1  LIG1       -0.0093
     24 S          -3.0649    6.2192    1.1650 S.2     1  LIG1       -0.0937
     25 H          -3.7133    8.5354    0.7346 H       1  LIG1        0.0705
     26 N           0.7264    6.3262   -2.2025 N.1     1  LIG1       -0.1908
     27 C          -0.1607    6.4644   -1.4882 C.1     1  LIG1        0.1014
     28 S          -1.5589    9.2994   -1.4445 S.3     1  LIG1       -0.1408
     29 H          -2.5290   10.0777   -0.9590 H       1  LIG1        0.1072
@<TRIPOS>BOND
     1    26    27    3
     2     7     8    3
     3     9    10    1
     4     9     3    1
     5    27    21    1
     6    28    29    1
     7    28    22    1
     8     8     2    1
     9    21    22   ar
    10    21    20   ar
    11     3     2   ar
    12     3     4   ar
    13    22    23   ar
    14     2     1   ar
    15    15    11   ar
    16    15    14   ar
    17     4    11    1
    18     4     5   ar
    19    20    14    1
    20    20    24   ar
    21    11    12   ar
    22    14    13   ar
    23    23    25    1
    24    23    24   ar
    25     1     6    1
    26     1     5   ar
    27    12    13   ar
    28    12    17    1
    29    13    18    1
    30    19    18    1
    31    17    16    3
