@<TRIPOS>MOLECULE
mol_data/opt/m06hf/geoms/mol2/5dg5dg-5dg-5dg.out
 38 41 0 0 0
SMALL
GASTEIGER

@<TRIPOS>ATOM
      1 C          -1.7284   -2.0406   -0.2919 C.ar    1  LIG1       -0.0052
      2 C          -0.5591   -1.9023    0.3956 C.ar    1  LIG1        0.0725
      3 C          -0.1132   -0.5354    0.4993 C.ar    1  LIG1        0.0375
      4 C          -0.9830    0.3092   -0.1330 C.ar    1  LIG1        0.0416
      5 S          -2.3223   -0.5396   -0.8396 S.2     1  LIG1       -0.0937
      6 H          -2.2517   -2.9606   -0.4981 H       1  LIG1        0.0707
      7 N           0.7160   -3.8943    1.4448 N.1     1  LIG1       -0.1908
      8 C           0.1493   -3.0143    0.9751 C.1     1  LIG1        0.1008
      9 S           1.3506   -0.1466    1.3959 S.3     1  LIG1       -0.1403
     10 H           1.2522    1.1760    1.2178 H       1  LIG1        0.1072
     11 C          -0.8928    1.7694   -0.2457 C.ar    1  LIG1        0.0460
     12 C           0.0906    2.4988   -0.8644 C.ar    1  LIG1        0.0808
     13 C          -0.1104    3.9217   -0.7923 C.ar    1  LIG1        0.0381
     14 C          -1.2612    4.2184   -0.1141 C.ar    1  LIG1        0.0422
     15 S          -2.0801    2.7996    0.4450 S.2     1  LIG1       -0.0847
     16 N           2.0875    1.4167   -2.1012 N.1     1  LIG1       -0.1908
     17 C           1.1963    1.8881   -1.5538 C.1     1  LIG1        0.1014
     18 S           1.0236    5.0202   -1.5696 S.3     1  LIG1       -0.1402
     19 H           0.3528    6.1299   -1.2444 H       1  LIG1        0.1072
     20 C          -1.8126    5.5502    0.1639 C.ar    1  LIG1        0.0460
     21 C          -1.2404    6.5361    0.9276 C.ar    1  LIG1        0.0808
     22 C          -2.0264    7.7376    0.9993 C.ar    1  LIG1        0.0381
     23 C          -3.1858    7.6092    0.2859 C.ar    1  LIG1        0.0422
     24 S          -3.3148    6.0647   -0.4843 S.2     1  LIG1       -0.0847
     25 N           1.0087    6.2173    2.1645 N.1     1  LIG1       -0.1908
     26 C           0.0109    6.3555    1.6152 C.1     1  LIG1        0.1014
     27 S          -1.4845    9.1104    1.9611 S.3     1  LIG1       -0.1402
     28 H          -2.4922    9.9124    1.5948 H       1  LIG1        0.1072
     29 C          -4.2429    8.6171    0.1246 C.ar    1  LIG1        0.0454
     30 C          -4.1688    9.7747   -0.6069 C.ar    1  LIG1        0.0802
     31 C          -5.3720   10.5613   -0.5576 C.ar    1  LIG1        0.0298
     32 C          -6.3200    9.9588    0.2116 C.ar    1  LIG1       -0.0093
     33 S          -5.7748    8.4714    0.8830 S.2     1  LIG1       -0.0937
     34 H          -7.3175   10.3100    0.4219 H       1  LIG1        0.0705
     35 N          -2.0663   10.4485   -1.9557 N.1     1  LIG1       -0.1908
     36 C          -2.9971   10.1423   -1.3584 C.1     1  LIG1        0.1014
     37 S          -5.4887   12.0882   -1.4432 S.3     1  LIG1       -0.1408
     38 H          -6.7150   12.3811   -1.0047 H       1  LIG1        0.1072
@<TRIPOS>BOND
     1    16    17    3
     2    35    36    3
     3    18    19    1
     4    18    13    1
     5    17    12    1
     6    37    38    1
     7    37    31    1
     8    36    30    1
     9    12    13   ar
    10    12    11   ar
    11     5     1   ar
    12     5     4   ar
    13    13    14   ar
    14    30    31   ar
    15    30    29   ar
    16    31    32   ar
    17     6     1    1
    18    24    20   ar
    19    24    23   ar
    20     1     2   ar
    21    11     4    1
    22    11    15   ar
    23     4     3   ar
    24    14    20    1
    25    14    15   ar
    26    29    23    1
    27    29    33   ar
    28    20    21   ar
    29    32    34    1
    30    32    33   ar
    31    23    22   ar
    32     2     3   ar
    33     2     8    1
    34     3     9    1
    35    21    22   ar
    36    21    26    1
    37     8     7    3
    38    22    27    1
    39    10     9    1
    40    28    27    1
    41    26    25    3
