@<TRIPOS>MOLECULE
mol_data/opt/m06hf/geoms/mol2/5dg5dg5dg.out
 29 31 0 0 0
SMALL
GASTEIGER

@<TRIPOS>ATOM
      1 C          -1.8403   -1.9455    0.4366 C.ar    1  LIG1       -0.0052
      2 C          -0.7676   -1.8196   -0.3955 C.ar    1  LIG1        0.0725
      3 C          -0.3047   -0.4612   -0.5321 C.ar    1  LIG1        0.0375
      4 C          -1.0617    0.3903    0.2231 C.ar    1  LIG1        0.0416
      5 S          -2.3202   -0.4407    1.0818 S.2     1  LIG1       -0.0937
      6 H          -2.3568   -2.8569    0.6918 H       1  LIG1        0.0707
      7 N           0.3203   -3.8135   -1.6342 N.1     1  LIG1       -0.1908
      8 C          -0.1651   -2.9339   -1.0806 C.1     1  LIG1        0.1008
      9 S           1.0406   -0.0898   -1.6071 S.3     1  LIG1       -0.1403
     10 H           0.9901    1.2341   -1.4186 H       1  LIG1        0.1072
     11 C          -0.9028    1.8418    0.3684 C.ar    1  LIG1        0.0460
     12 C           0.1805    2.5068    0.8844 C.ar    1  LIG1        0.0808
     13 C           0.0303    3.9367    0.8930 C.ar    1  LIG1        0.0381
     14 C          -1.1844    4.3057    0.3836 C.ar    1  LIG1        0.0422
     15 S          -2.1224    2.9431   -0.1247 S.2     1  LIG1       -0.0847
     16 N           2.2638    1.3001    1.8290 N.1     1  LIG1       -0.1908
     17 C           1.3355    1.8269    1.4082 C.1     1  LIG1        0.1014
     18 S           1.2952    4.9627    1.5615 S.3     1  LIG1       -0.1402
     19 H           0.7001    6.1145    1.2279 H       1  LIG1        0.1072
     20 C          -1.7127    5.6702    0.2532 C.ar    1  LIG1        0.0454
     21 C          -1.2493    6.6633   -0.5720 C.ar    1  LIG1        0.0802
     22 C          -1.9715    7.9001   -0.4402 C.ar    1  LIG1        0.0298
     23 C          -2.9676    7.7909    0.4811 C.ar    1  LIG1       -0.0093
     24 S          -3.0336    6.2285    1.1956 S.2     1  LIG1       -0.0937
     25 H          -3.6716    8.5505    0.7812 H       1  LIG1        0.0705
     26 N           0.7249    6.3260   -2.2088 N.1     1  LIG1       -0.1908
     27 C          -0.1541    6.4667   -1.4850 C.1     1  LIG1        0.1014
     28 S          -1.5337    9.3102   -1.4156 S.3     1  LIG1       -0.1408
     29 H          -2.4940   10.0926   -0.9174 H       1  LIG1        0.1072
@<TRIPOS>BOND
     1    26    27    3
     2     7     8    3
     3     9    10    1
     4     9     3    1
     5    27    21    1
     6    28    29    1
     7    28    22    1
     8     8     2    1
     9    21    22   ar
    10    21    20   ar
    11     3     2   ar
    12     3     4   ar
    13    22    23   ar
    14     2     1   ar
    15    15    11   ar
    16    15    14   ar
    17     4    11    1
    18     4     5   ar
    19    20    14    1
    20    20    24   ar
    21    11    12   ar
    22    14    13   ar
    23     1     6    1
    24     1     5   ar
    25    23    25    1
    26    23    24   ar
    27    12    13   ar
    28    12    17    1
    29    13    18    1
    30    19    18    1
    31    17    16    3
