@<TRIPOS>MOLECULE
mol_data/opt/m06hf/geoms/mol2/5dg5dg-5dg-.out
 29 31 0 0 0
SMALL
GASTEIGER

@<TRIPOS>ATOM
      1 C          -1.5512   -1.7172    1.4660 C.ar    1  LIG1       -0.0052
      2 C          -0.8590   -1.8515    0.2986 C.ar    1  LIG1        0.0725
      3 C          -0.4731   -0.5919   -0.2855 C.ar    1  LIG1        0.0375
      4 C          -0.8956    0.4545    0.4852 C.ar    1  LIG1        0.0416
      5 S          -1.7495   -0.0802    1.8994 S.2     1  LIG1       -0.0937
      6 H          -1.9389   -2.5124    2.0822 H       1  LIG1        0.0707
      7 N          -0.3019   -4.1350   -0.7838 N.1     1  LIG1       -0.1908
      8 C          -0.5515   -3.1264   -0.2971 C.1     1  LIG1        0.1008
      9 S           0.3898   -0.5570   -1.8201 S.3     1  LIG1       -0.1403
     10 H           0.4843    0.7760   -1.8788 H       1  LIG1        0.1072
     11 C          -0.7085    1.8881    0.2307 C.ar    1  LIG1        0.0460
     12 C           0.4775    2.5736    0.1621 C.ar    1  LIG1        0.0808
     13 C           0.3210    3.9760   -0.1178 C.ar    1  LIG1        0.0381
     14 C          -0.9999    4.3095   -0.2342 C.ar    1  LIG1        0.0422
     15 S          -2.0411    2.9391   -0.0285 S.2     1  LIG1       -0.0847
     16 N           2.7836    1.4573    0.5158 N.1     1  LIG1       -0.1908
     17 C           1.7555    1.9446    0.3674 C.1     1  LIG1        0.1014
     18 S           1.7337    5.0126   -0.2949 S.3     1  LIG1       -0.1402
     19 H           1.0282    6.1081   -0.5943 H       1  LIG1        0.1072
     20 C          -1.5662    5.6407   -0.4871 C.ar    1  LIG1        0.0454
     21 C          -1.4853    6.7402    0.3293 C.ar    1  LIG1        0.0802
     22 C          -2.1516    7.8986   -0.2033 C.ar    1  LIG1        0.0298
     23 C          -2.7240    7.6259   -1.4068 C.ar    1  LIG1       -0.0093
     24 S          -2.4556    6.0025   -1.9098 S.2     1  LIG1       -0.0937
     25 H          -3.2903    8.2966   -2.0329 H       1  LIG1        0.0705
     26 N          -0.2808    6.7093    2.6185 N.1     1  LIG1       -0.1908
     27 C          -0.8178    6.7151    1.6044 C.1     1  LIG1        0.1014
     28 S          -2.1609    9.4214    0.6968 S.3     1  LIG1       -0.1408
     29 H          -2.9067   10.0822   -0.1935 H       1  LIG1        0.1072
@<TRIPOS>BOND
     1    25    23    1
     2    24    23   ar
     3    24    20   ar
     4    10     9    1
     5     9     3    1
     6    23    22   ar
     7     7     8    3
     8    19    18    1
     9    20    14    1
    10    20    21   ar
    11     8     2    1
    12    18    13    1
    13     3     2   ar
    14     3     4   ar
    15    14    13   ar
    16    14    15   ar
    17    22    21   ar
    18    22    28    1
    19    29    28    1
    20    13    12   ar
    21    15    11   ar
    22    12    11   ar
    23    12    17    1
    24    11     4    1
    25     2     1   ar
    26    21    27    1
    27    17    16    3
    28     4     5   ar
    29     1     5   ar
    30     1     6    1
    31    27    26    3
