@<TRIPOS>MOLECULE
mol_data/opt/m06hf/geoms/mol2/5dg5dg-5dg5dg-.out
 38 41 0 0 0
SMALL
GASTEIGER

@<TRIPOS>ATOM
      1 C          -0.6854   -1.5772    2.1916 C.ar    1  LIG1       -0.0052
      2 C          -0.8907   -1.7830    0.8593 C.ar    1  LIG1        0.0725
      3 C          -0.8639   -0.5687    0.0843 C.ar    1  LIG1        0.0375
      4 C          -0.6315    0.5158    0.8830 C.ar    1  LIG1        0.0416
      5 S          -0.4477    0.0737    2.5488 S.2     1  LIG1       -0.0937
      6 H          -0.6595   -2.3279    2.9654 H       1  LIG1        0.0707
      7 N          -1.3086   -4.1052   -0.2028 N.1     1  LIG1       -0.1908
      8 C          -1.1204   -3.0813    0.2795 C.1     1  LIG1        0.1008
      9 S          -1.1575   -0.6088   -1.6521 S.3     1  LIG1       -0.1403
     10 H          -0.9330    0.6970   -1.8395 H       1  LIG1        0.1072
     11 C          -0.5338    1.9208    0.4650 C.ar    1  LIG1        0.0460
     12 C           0.4402    2.4845   -0.3193 C.ar    1  LIG1        0.0808
     13 C           0.2417    3.8866   -0.5682 C.ar    1  LIG1        0.0381
     14 C          -0.8879    4.3395    0.0563 C.ar    1  LIG1        0.0422
     15 S          -1.7060    3.0860    0.9241 S.2     1  LIG1       -0.0847
     16 N           2.4240    1.1409   -1.2939 N.1     1  LIG1       -0.1908
     17 C           1.5486    1.7323   -0.8461 C.1     1  LIG1        0.1014
     18 S           1.3586    4.7794   -1.5962 S.3     1  LIG1       -0.1402
     19 H           0.7803    5.9675   -1.3855 H       1  LIG1        0.1072
     20 C          -1.4293    5.7057    0.0275 C.ar    1  LIG1        0.0460
     21 C          -0.8827    6.8289    0.5935 C.ar    1  LIG1        0.0808
     22 C          -1.6488    8.0235    0.3607 C.ar    1  LIG1        0.0381
     23 C          -2.7698    7.7508   -0.3756 C.ar    1  LIG1        0.0422
     24 S          -2.8907    6.0754   -0.7893 S.2     1  LIG1       -0.0847
     25 N           1.3325    6.7947    1.9280 N.1     1  LIG1       -0.1908
     26 C           0.3456    6.8016    1.3433 C.1     1  LIG1        0.1014
     27 S          -1.0908    9.5795    0.9684 S.3     1  LIG1       -0.1402
     28 H          -2.1262   10.2653    0.4714 H       1  LIG1        0.1072
     29 C          -3.8084    8.6955   -0.8091 C.ar    1  LIG1        0.0454
     30 C          -4.6796    9.3934   -0.0119 C.ar    1  LIG1        0.0802
     31 C          -5.5838   10.2326   -0.7513 C.ar    1  LIG1        0.0298
     32 C          -5.3658   10.1287   -2.0906 C.ar    1  LIG1       -0.0093
     33 S          -4.0799    9.0510   -2.4662 S.2     1  LIG1       -0.0937
     34 H          -5.8950   10.6319   -2.8840 H       1  LIG1        0.0705
     35 N          -4.7020    9.1858    2.5661 N.1     1  LIG1       -0.1908
     36 C          -4.6908    9.2693    1.4218 C.1     1  LIG1        0.1014
     37 S          -6.7974   11.2120    0.0864 S.3     1  LIG1       -0.1408
     38 H          -7.2886   11.7635   -1.0272 H       1  LIG1        0.1072
@<TRIPOS>BOND
     1    34    32    1
     2    33    32   ar
     3    33    29   ar
     4    32    31   ar
     5    10     9    1
     6     9     3    1
     7    18    19    1
     8    18    13    1
     9    16    17    3
    10    38    37    1
    11    17    12    1
    12    29    23    1
    13    29    30   ar
    14    24    23   ar
    15    24    20   ar
    16    31    30   ar
    17    31    37    1
    18    13    12   ar
    19    13    14   ar
    20    23    22   ar
    21    12    11   ar
    22     7     8    3
    23    30    36    1
    24    20    14    1
    25    20    21   ar
    26    14    15   ar
    27     3     2   ar
    28     3     4   ar
    29     8     2    1
    30    22    21   ar
    31    22    27    1
    32    11     4    1
    33    11    15   ar
    34    28    27    1
    35    21    26    1
    36     2     1   ar
    37     4     5   ar
    38    26    25    3
    39    36    35    3
    40     1     5   ar
    41     1     6    1
