@<TRIPOS>MOLECULE
mol_data/opt/m06hf/geoms/mol2/5dg5dg.out
 20 21 0 0 0
SMALL
GASTEIGER

@<TRIPOS>ATOM
      1 C          -1.9204   -1.7661    0.8438 C.ar    1  LIG1       -0.0052
      2 C          -0.7821   -1.8312    0.0961 C.ar    1  LIG1        0.0725
      3 C          -0.2971   -0.5395   -0.3187 C.ar    1  LIG1        0.0375
      4 C          -1.1053    0.4599    0.1447 C.ar    1  LIG1        0.0416
      5 S          -2.4332   -0.1554    1.0744 S.2     1  LIG1       -0.0937
      6 H          -2.4654   -2.5955    1.2646 H       1  LIG1        0.0707
      7 N           0.3776   -4.0506   -0.5562 N.1     1  LIG1       -0.1908
      8 C          -0.1392   -3.0701   -0.2593 C.1     1  LIG1        0.1008
      9 S           1.1373   -0.4049   -1.3332 S.3     1  LIG1       -0.1403
     10 H           1.1124    0.9308   -1.3927 H       1  LIG1        0.1072
     11 C          -0.9491    1.9044   -0.0700 C.ar    1  LIG1        0.0454
     12 C           0.0682    2.7062    0.3812 C.ar    1  LIG1        0.0802
     13 C          -0.0641    4.0811   -0.0212 C.ar    1  LIG1        0.0298
     14 C          -1.1896    4.2716   -0.7609 C.ar    1  LIG1       -0.0093
     15 S          -2.0752    2.8130   -0.9934 S.2     1  LIG1       -0.0937
     16 H          -1.5500    5.1952   -1.1838 H       1  LIG1        0.0705
     17 N           2.0281    1.8275    1.8235 N.1     1  LIG1       -0.1908
     18 C           1.1511    2.2104    1.1898 C.1     1  LIG1        0.1014
     19 S           1.1378    5.2860    0.4662 S.3     1  LIG1       -0.1408
     20 H           0.5956    6.2797   -0.2445 H       1  LIG1        0.1072
@<TRIPOS>BOND
     1    10     9    1
     2     9     3    1
     3    16    14    1
     4    15    14   ar
     5    15    11   ar
     6    14    13   ar
     7     7     8    3
     8     3     2   ar
     9     3     4   ar
    10     8     2    1
    11    20    19    1
    12    11     4    1
    13    11    12   ar
    14    13    12   ar
    15    13    19    1
    16     2     1   ar
    17     4     5   ar
    18    12    18    1
    19     1     5   ar
    20     1     6    1
    21    18    17    3
