@<TRIPOS>MOLECULE
mol_data/opt/m06hf/geoms/mol2/5dg5dg-5dg-5dg-.out
 38 41 0 0 0
SMALL
GASTEIGER

@<TRIPOS>ATOM
      1 C          -1.8098   -2.0300   -0.2264 C.ar    1  LIG1       -0.0052
      2 C          -0.6088   -1.8971    0.4050 C.ar    1  LIG1        0.0725
      3 C          -0.1398   -0.5353    0.4643 C.ar    1  LIG1        0.0375
      4 C          -1.0262    0.3112   -0.1418 C.ar    1  LIG1        0.0416
      5 S          -2.4073   -0.5298   -0.7736 S.2     1  LIG1       -0.0937
      6 H          -2.3546   -2.9457   -0.3925 H       1  LIG1        0.0707
      7 N           0.6794   -3.8899    1.4369 N.1     1  LIG1       -0.1908
      8 C           0.1078   -3.0093    0.9742 C.1     1  LIG1        0.1008
      9 S           1.3698   -0.1509    1.2831 S.3     1  LIG1       -0.1403
     10 H           1.2745    1.1704    1.0938 H       1  LIG1        0.1072
     11 C          -0.9219    1.7683   -0.2800 C.ar    1  LIG1        0.0460
     12 C           0.0374    2.4752   -0.9595 C.ar    1  LIG1        0.0808
     13 C          -0.1387    3.9019   -0.8953 C.ar    1  LIG1        0.0381
     14 C          -1.2463    4.2242   -0.1592 C.ar    1  LIG1        0.0422
     15 S          -2.0546    2.8244    0.4608 S.2     1  LIG1       -0.0847
     16 N           1.9501    1.3435   -2.2818 N.1     1  LIG1       -0.1908
     17 C           1.0962    1.8380   -1.6967 C.1     1  LIG1        0.1014
     18 S           0.9662    4.9723   -1.7501 S.3     1  LIG1       -0.1402
     19 H           0.3321    6.0968   -1.4030 H       1  LIG1        0.1072
     20 C          -1.7666    5.5653    0.1328 C.ar    1  LIG1        0.0460
     21 C          -1.1388    6.5593    0.8403 C.ar    1  LIG1        0.0808
     22 C          -1.9141    7.7651    0.9507 C.ar    1  LIG1        0.0381
     23 C          -3.1216    7.6316    0.3233 C.ar    1  LIG1        0.0422
     24 S          -3.3087    6.0777   -0.4157 S.2     1  LIG1       -0.0847
     25 N           1.1875    6.2467    1.9267 N.1     1  LIG1       -0.1908
     26 C           0.1553    6.3822    1.4442 C.1     1  LIG1        0.1014
     27 S          -1.3026    9.1467    1.8564 S.3     1  LIG1       -0.1402
     28 H          -2.3282    9.9501    1.5476 H       1  LIG1        0.1072
     29 C          -4.1916    8.6349    0.2334 C.ar    1  LIG1        0.0454
     30 C          -4.1801    9.7906   -0.5052 C.ar    1  LIG1        0.0802
     31 C          -5.3853   10.5644   -0.3745 C.ar    1  LIG1        0.0298
     32 C          -6.2703    9.9558    0.4619 C.ar    1  LIG1       -0.0093
     33 S          -5.6669    8.4747    1.0944 S.2     1  LIG1       -0.0937
     34 H          -7.2510   10.3022    0.7463 H       1  LIG1        0.0705
     35 N          -2.1828   10.4748   -2.0005 N.1     1  LIG1       -0.1908
     36 C          -3.0678   10.1646   -1.3393 C.1     1  LIG1        0.1014
     37 S          -5.5854   12.0927   -1.2442 S.3     1  LIG1       -0.1408
     38 H          -6.8687   12.2436   -0.9048 H       1  LIG1        0.1072
@<TRIPOS>BOND
     1    16    17    3
     2    35    36    3
     3    18    19    1
     4    18    13    1
     5    17    12    1
     6    36    30    1
     7    37    38    1
     8    37    31    1
     9    12    13   ar
    10    12    11   ar
    11    13    14   ar
    12     5     1   ar
    13     5     4   ar
    14    30    31   ar
    15    30    29   ar
    16    24    20   ar
    17    24    23   ar
    18     6     1    1
    19    31    32   ar
    20    11     4    1
    21    11    15   ar
    22     1     2   ar
    23    14    20    1
    24    14    15   ar
    25     4     3   ar
    26    20    21   ar
    27    29    23    1
    28    29    33   ar
    29    23    22   ar
    30     2     3   ar
    31     2     8    1
    32    32    34    1
    33    32    33   ar
    34     3     9    1
    35    21    22   ar
    36    21    26    1
    37    22    27    1
    38     8     7    3
    39    10     9    1
    40    26    25    3
    41    28    27    1
