@<TRIPOS>MOLECULE
mol_data/opt/m06hf/geoms/mol2/5dg5dg5dg-5dg-.out
 38 41 0 0 0
SMALL
GASTEIGER

@<TRIPOS>ATOM
      1 C          -0.5219   -1.8730    1.6147 C.ar    1  LIG1       -0.0052
      2 C          -0.6733   -1.9043    0.2596 C.ar    1  LIG1        0.0725
      3 C          -0.7140   -0.5952   -0.3390 C.ar    1  LIG1        0.0375
      4 C          -0.5861    0.3808    0.6094 C.ar    1  LIG1        0.0416
      5 S          -0.4176   -0.2772    2.2059 S.2     1  LIG1       -0.0937
      6 H          -0.4628   -2.7215    2.2774 H       1  LIG1        0.0707
      7 N          -0.8937   -4.0885   -1.1103 N.1     1  LIG1       -0.1908
      8 C          -0.7927   -3.1243   -0.4965 C.1     1  LIG1        0.1008
      9 S          -0.9453   -0.4051   -2.0757 S.3     1  LIG1       -0.1403
     10 H          -0.9062    0.9320   -2.0447 H       1  LIG1        0.1072
     11 C          -0.5759    1.8325    0.3852 C.ar    1  LIG1        0.0460
     12 C           0.3813    2.5561   -0.2786 C.ar    1  LIG1        0.0808
     13 C           0.0864    3.9610   -0.3685 C.ar    1  LIG1        0.0381
     14 C          -1.0958    4.2526    0.2555 C.ar    1  LIG1        0.0422
     15 S          -1.8513    2.8464    0.9247 S.2     1  LIG1       -0.0847
     16 N           2.5117    1.4927   -1.2882 N.1     1  LIG1       -0.1908
     17 C           1.5667    1.9556   -0.8312 C.1     1  LIG1        0.1014
     18 S           1.1753    5.0451   -1.2292 S.3     1  LIG1       -0.1402
     19 H           0.3858    6.1192   -1.1154 H       1  LIG1        0.1072
     20 C          -1.7154    5.5770    0.3931 C.ar    1  LIG1        0.0460
     21 C          -1.2143    6.6473    1.0880 C.ar    1  LIG1        0.0808
     22 C          -2.0408    7.8220    1.0158 C.ar    1  LIG1        0.0381
     23 C          -3.1585    7.5899    0.2615 C.ar    1  LIG1        0.0422
     24 S          -3.2015    5.9767   -0.3673 S.2     1  LIG1       -0.0847
     25 N           0.9892    6.5378    2.4387 N.1     1  LIG1       -0.1908
     26 C           0.0113    6.5797    1.8397 C.1     1  LIG1        0.1014
     27 S          -1.5719    9.2866    1.8739 S.3     1  LIG1       -0.1402
     28 H          -2.6609    9.9808    1.5262 H       1  LIG1        0.1072
     29 C          -4.2319    8.5412   -0.0541 C.ar    1  LIG1        0.0454
     30 C          -4.1151    9.7018   -0.7757 C.ar    1  LIG1        0.0802
     31 C          -5.3514   10.4266   -0.8983 C.ar    1  LIG1        0.0298
     32 C          -6.3672    9.7729   -0.2713 C.ar    1  LIG1       -0.0093
     33 S          -5.8483    8.3125    0.4760 S.2     1  LIG1       -0.0937
     34 H          -7.4013   10.0716   -0.2064 H       1  LIG1        0.0705
     35 N          -1.8830   10.4754   -1.8305 N.1     1  LIG1       -0.1908
     36 C          -2.8724   10.1266   -1.3652 C.1     1  LIG1        0.1014
     37 S          -5.4121   11.9566   -1.7836 S.3     1  LIG1       -0.1408
     38 H          -6.7003   12.1918   -1.5246 H       1  LIG1        0.1072
@<TRIPOS>BOND
     1     9    10    1
     2     9     3    1
     3    35    36    3
     4    37    38    1
     5    37    31    1
     6    36    30    1
     7    16    17    3
     8    18    19    1
     9    18    13    1
    10     7     8    3
    11    31    30   ar
    12    31    32   ar
    13    17    12    1
    14    30    29   ar
    15     8     2    1
    16    13    12   ar
    17    13    14   ar
    18    24    23   ar
    19    24    20   ar
    20     3     2   ar
    21     3     4   ar
    22    12    11   ar
    23    32    34    1
    24    32    33   ar
    25    29    23    1
    26    29    33   ar
    27    14    20    1
    28    14    15   ar
    29     2     1   ar
    30    23    22   ar
    31    11     4    1
    32    11    15   ar
    33    20    21   ar
    34     4     5   ar
    35    22    21   ar
    36    22    27    1
    37    21    26    1
    38    28    27    1
    39     1     5   ar
    40     1     6    1
    41    26    25    3
