@<TRIPOS>MOLECULE
mol_data/opt/m06hf/geoms/mol2/5dg5dg5dg5dg-.out
 38 41 0 0 0
SMALL
GASTEIGER

@<TRIPOS>ATOM
      1 C          -1.7105   -2.0330    0.4171 C.ar    1  LIG1       -0.0052
      2 C          -0.5381   -1.9051   -0.2672 C.ar    1  LIG1        0.0725
      3 C          -0.0956   -0.5393   -0.3961 C.ar    1  LIG1        0.0375
      4 C          -0.9710    0.3153    0.2146 C.ar    1  LIG1        0.0416
      5 S          -2.3113   -0.5231    0.9317 S.2     1  LIG1       -0.0937
      6 H          -2.2323   -2.9503    0.6391 H       1  LIG1        0.0707
      7 N           0.7475   -3.9141   -1.2701 N.1     1  LIG1       -0.1908
      8 C           0.1762   -3.0265   -0.8209 C.1     1  LIG1        0.1008
      9 S           1.3717   -0.1643   -1.2927 S.3     1  LIG1       -0.1403
     10 H           1.2684    1.1613   -1.1421 H       1  LIG1        0.1072
     11 C          -0.8854    1.7777    0.2983 C.ar    1  LIG1        0.0460
     12 C           0.0926    2.5222    0.9074 C.ar    1  LIG1        0.0808
     13 C          -0.1119    3.9428    0.8056 C.ar    1  LIG1        0.0381
     14 C          -1.2598    4.2225    0.1154 C.ar    1  LIG1        0.0422
     15 S          -2.0719    2.7903   -0.4193 S.2     1  LIG1       -0.0847
     16 N           2.0858    1.4709    2.1762 N.1     1  LIG1       -0.1908
     17 C           1.1963    1.9287    1.6147 C.1     1  LIG1        0.1014
     18 S           1.0149    5.0601    1.5666 S.3     1  LIG1       -0.1402
     19 H           0.3425    6.1609    1.2157 H       1  LIG1        0.1072
     20 C          -1.8134    5.5468   -0.1925 C.ar    1  LIG1        0.0460
     21 C          -1.2397    6.5187   -0.9728 C.ar    1  LIG1        0.0808
     22 C          -2.0286    7.7162   -1.0731 C.ar    1  LIG1        0.0381
     23 C          -3.1916    7.5990   -0.3637 C.ar    1  LIG1        0.0422
     24 S          -3.3206    6.0699    0.4369 S.2     1  LIG1       -0.0847
     25 N           1.0171    6.1813   -2.1907 N.1     1  LIG1       -0.1908
     26 C           0.0159    6.3278   -1.6497 C.1     1  LIG1        0.1014
     27 S          -1.4853    9.0708   -2.0596 S.3     1  LIG1       -0.1402
     28 H          -2.4970    9.8772   -1.7149 H       1  LIG1        0.1072
     29 C          -4.2524    8.6068   -0.2287 C.ar    1  LIG1        0.0454
     30 C          -4.1857    9.7793    0.4795 C.ar    1  LIG1        0.0802
     31 C          -5.3908   10.5612    0.4074 C.ar    1  LIG1        0.0298
     32 C          -6.3327    9.9404   -0.3548 C.ar    1  LIG1       -0.0093
     33 S          -5.7795    8.4413   -0.9926 S.2     1  LIG1       -0.0937
     34 H          -7.3300   10.2844   -0.5777 H       1  LIG1        0.0705
     35 N          -2.0932   10.4865    1.8265 N.1     1  LIG1       -0.1908
     36 C          -3.0195   10.1654    1.2301 C.1     1  LIG1        0.1014
     37 S          -5.5169   12.1055    1.2609 S.3     1  LIG1       -0.1408
     38 H          -6.7418   12.3854    0.8101 H       1  LIG1        0.1072
@<TRIPOS>BOND
     1    25    26    3
     2    27    28    1
     3    27    22    1
     4    26    21    1
     5     9    10    1
     6     9     3    1
     7     7     8    3
     8    22    21   ar
     9    22    23   ar
    10    33    32   ar
    11    33    29   ar
    12    21    20   ar
    13     8     2    1
    14    34    32    1
    15    15    14   ar
    16    15    11   ar
    17     3     2   ar
    18     3     4   ar
    19    23    29    1
    20    23    24   ar
    21    32    31   ar
    22     2     1   ar
    23    29    30   ar
    24    20    14    1
    25    20    24   ar
    26    14    13   ar
    27     4    11    1
    28     4     5   ar
    29    11    12   ar
    30    31    30   ar
    31    31    37    1
    32     1     6    1
    33     1     5   ar
    34    30    36    1
    35    13    12   ar
    36    13    18    1
    37    38    37    1
    38    12    17    1
    39    19    18    1
    40    36    35    3
    41    17    16    3
