@<TRIPOS>MOLECULE
mol_data/opt/m06hf/geoms/mol2/5dg5dg-5dg.out
 29 31 0 0 0
SMALL
GASTEIGER

@<TRIPOS>ATOM
      1 C          -1.5547   -1.7033    1.5051 C.ar    1  LIG1       -0.0052
      2 C          -0.8877   -1.8492    0.3246 C.ar    1  LIG1        0.0725
      3 C          -0.5052   -0.5957   -0.2747 C.ar    1  LIG1        0.0375
      4 C          -0.9045    0.4581    0.4984 C.ar    1  LIG1        0.0416
      5 S          -1.7328   -0.0625    1.9330 S.2     1  LIG1       -0.0937
      6 H          -1.9352   -2.4922    2.1338 H       1  LIG1        0.0707
      7 N          -0.3689   -4.1426   -0.7558 N.1     1  LIG1       -0.1908
      8 C          -0.6014   -3.1295   -0.2698 C.1     1  LIG1        0.1008
      9 S           0.3261   -0.5755   -1.8268 S.3     1  LIG1       -0.1403
     10 H           0.4287    0.7564   -1.8953 H       1  LIG1        0.1072
     11 C          -0.7128    1.8889    0.2318 C.ar    1  LIG1        0.0460
     12 C           0.4763    2.5656    0.1348 C.ar    1  LIG1        0.0808
     13 C           0.3238    3.9674   -0.1501 C.ar    1  LIG1        0.0381
     14 C          -0.9969    4.3096   -0.2412 C.ar    1  LIG1        0.0422
     15 S          -2.0431    2.9477   -0.0061 S.2     1  LIG1       -0.0847
     16 N           2.7814    1.4352    0.4476 N.1     1  LIG1       -0.1908
     17 C           1.7539    1.9288    0.3174 C.1     1  LIG1        0.1014
     18 S           1.7397    4.9931   -0.3621 S.3     1  LIG1       -0.1402
     19 H           1.0357    6.0917   -0.6534 H       1  LIG1        0.1072
     20 C          -1.5591    5.6433   -0.4902 C.ar    1  LIG1        0.0454
     21 C          -1.4538    6.7468    0.3180 C.ar    1  LIG1        0.0802
     22 C          -2.1228    7.9068   -0.2076 C.ar    1  LIG1        0.0298
     23 C          -2.7218    7.6313   -1.3974 C.ar    1  LIG1       -0.0093
     24 S          -2.4750    6.0032   -1.8964 S.2     1  LIG1       -0.0937
     25 H          -3.2962    8.3024   -2.0157 H       1  LIG1        0.0705
     26 N          -0.2026    6.7204    2.5821 N.1     1  LIG1       -0.1908
     27 C          -0.7604    6.7242    1.5792 C.1     1  LIG1        0.1014
     28 S          -2.1031    9.4347    0.6837 S.3     1  LIG1       -0.1408
     29 H          -2.8625   10.0957   -0.1950 H       1  LIG1        0.1072
@<TRIPOS>BOND
     1    25    23    1
     2    24    23   ar
     3    24    20   ar
     4    10     9    1
     5     9     3    1
     6    23    22   ar
     7     7     8    3
     8    19    18    1
     9    20    14    1
    10    20    21   ar
    11    18    13    1
    12     3     2   ar
    13     3     4   ar
    14     8     2    1
    15    14    13   ar
    16    14    15   ar
    17    22    21   ar
    18    22    28    1
    19    29    28    1
    20    13    12   ar
    21    15    11   ar
    22    12    11   ar
    23    12    17    1
    24    11     4    1
    25    17    16    3
    26    21    27    1
    27     2     1   ar
    28     4     5   ar
    29     1     5   ar
    30     1     6    1
    31    27    26    3
