@<TRIPOS>MOLECULE
mol_data/opt/m06hf/geoms/mol2/5dg5dg5dg-5dg.out
 38 41 0 0 0
SMALL
GASTEIGER

@<TRIPOS>ATOM
      1 C          -0.7215   -1.5743    2.1978 C.ar    1  LIG1       -0.0052
      2 C          -0.8990   -1.7812    0.8616 C.ar    1  LIG1        0.0725
      3 C          -0.8579   -0.5674    0.0865 C.ar    1  LIG1        0.0375
      4 C          -0.6436    0.5180    0.8892 C.ar    1  LIG1        0.0416
      5 S          -0.4934    0.0771    2.5587 S.2     1  LIG1       -0.0937
      6 H          -0.7106   -2.3245    2.9724 H       1  LIG1        0.0707
      7 N          -1.2917   -4.1046   -0.2074 N.1     1  LIG1       -0.1908
      8 C          -1.1149   -3.0802    0.2781 C.1     1  LIG1        0.1008
      9 S          -1.1158   -0.6090   -1.6555 S.3     1  LIG1       -0.1403
     10 H          -0.8891    0.6970   -1.8391 H       1  LIG1        0.1072
     11 C          -0.5394    1.9228    0.4724 C.ar    1  LIG1        0.0460
     12 C           0.4496    2.4874   -0.2923 C.ar    1  LIG1        0.0808
     13 C           0.2543    3.8891   -0.5461 C.ar    1  LIG1        0.0381
     14 C          -0.8883    4.3408    0.0552 C.ar    1  LIG1        0.0422
     15 S          -1.7221    3.0867    0.9069 S.2     1  LIG1       -0.0847
     16 N           2.4545    1.1460   -1.2260 N.1     1  LIG1       -0.1908
     17 C           1.5694    1.7364   -0.7963 C.1     1  LIG1        0.1014
     18 S           1.3907    4.7829   -1.5517 S.3     1  LIG1       -0.1402
     19 H           0.8066    5.9703   -1.3536 H       1  LIG1        0.1072
     20 C          -1.4309    5.7063    0.0144 C.ar    1  LIG1        0.0460
     21 C          -0.8977    6.8306    0.5909 C.ar    1  LIG1        0.0808
     22 C          -1.6605    8.0240    0.3417 C.ar    1  LIG1        0.0381
     23 C          -2.7657    7.7492   -0.4175 C.ar    1  LIG1        0.0422
     24 S          -2.8756    6.0734   -0.8325 S.2     1  LIG1       -0.0847
     25 N           1.2896    6.8002    1.9708 N.1     1  LIG1       -0.1908
     26 C           0.3149    6.8054    1.3659 C.1     1  LIG1        0.1014
     27 S          -1.1172    9.5811    0.9598 S.3     1  LIG1       -0.1402
     28 H          -2.1429   10.2652    0.4410 H       1  LIG1        0.1072
     29 C          -3.7964    8.6922   -0.8729 C.ar    1  LIG1        0.0454
     30 C          -4.6847    9.3895   -0.0943 C.ar    1  LIG1        0.0802
     31 C          -5.5748   10.2268   -0.8527 C.ar    1  LIG1        0.0298
     32 C          -5.3292   10.1223   -2.1872 C.ar    1  LIG1       -0.0093
     33 S          -4.0343    9.0461   -2.5355 S.2     1  LIG1       -0.0937
     34 H          -5.8426   10.6242   -2.9917 H       1  LIG1        0.0705
     35 N          -4.7600    9.1836    2.4828 N.1     1  LIG1       -0.1908
     36 C          -4.7253    9.2664    1.3390 C.1     1  LIG1        0.1014
     37 S          -6.8067   11.2051   -0.0409 S.3     1  LIG1       -0.1408
     38 H          -7.2754   11.7553   -1.1647 H       1  LIG1        0.1072
@<TRIPOS>BOND
     1    34    32    1
     2    33    32   ar
     3    33    29   ar
     4    32    31   ar
     5    10     9    1
     6     9     3    1
     7    18    19    1
     8    18    13    1
     9    16    17    3
    10    38    37    1
    11    29    23    1
    12    29    30   ar
    13    31    30   ar
    14    31    37    1
    15    24    23   ar
    16    24    20   ar
    17    17    12    1
    18    13    12   ar
    19    13    14   ar
    20    23    22   ar
    21    12    11   ar
    22     7     8    3
    23    30    36    1
    24    20    14    1
    25    20    21   ar
    26    14    15   ar
    27     3     2   ar
    28     3     4   ar
    29     8     2    1
    30    22    21   ar
    31    22    27    1
    32    28    27    1
    33    11     4    1
    34    11    15   ar
    35    21    26    1
    36     2     1   ar
    37     4     5   ar
    38    36    35    3
    39    26    25    3
    40     1     5   ar
    41     1     6    1
