@<TRIPOS>MOLECULE
mol_data/opt/m06hf/geoms/mol2/5dg5dg5dg5dg.out
 38 41 0 0 0
SMALL
GASTEIGER

@<TRIPOS>ATOM
      1 C          -1.7536   -2.0336    0.4185 C.ar    1  LIG1       -0.0052
      2 C          -0.5641   -1.9110   -0.2365 C.ar    1  LIG1        0.0725
      3 C          -0.1121   -0.5472   -0.3537 C.ar    1  LIG1        0.0375
      4 C          -0.9983    0.3113    0.2357 C.ar    1  LIG1        0.0416
      5 S          -2.3599   -0.5211    0.9188 S.2     1  LIG1       -0.0937
      6 H          -2.2850   -2.9485    0.6272 H       1  LIG1        0.0707
      7 N           0.7367   -3.9256   -1.2082 N.1     1  LIG1       -0.1908
      8 C           0.1585   -3.0355   -0.7729 C.1     1  LIG1        0.1008
      9 S           1.3786   -0.1788   -1.2138 S.3     1  LIG1       -0.1403
     10 H           1.2782    1.1472   -1.0647 H       1  LIG1        0.1072
     11 C          -0.9078    1.7732    0.3224 C.ar    1  LIG1        0.0460
     12 C           0.0584    2.5128    0.9558 C.ar    1  LIG1        0.0808
     13 C          -0.1368    3.9344    0.8498 C.ar    1  LIG1        0.0381
     14 C          -1.2662    4.2198    0.1319 C.ar    1  LIG1        0.0422
     15 S          -2.0715    2.7918   -0.4235 S.2     1  LIG1       -0.0847
     16 N           2.0149    1.4515    2.2727 N.1     1  LIG1       -0.1908
     17 C           1.1415    1.9137    1.6898 C.1     1  LIG1        0.1014
     18 S           0.9762    5.0459    1.6390 S.3     1  LIG1       -0.1402
     19 H           0.3180    6.1501    1.2722 H       1  LIG1        0.1072
     20 C          -1.8058    5.5469   -0.1886 C.ar    1  LIG1        0.0460
     21 C          -1.2086    6.5165   -0.9539 C.ar    1  LIG1        0.0808
     22 C          -1.9893    7.7178   -1.0727 C.ar    1  LIG1        0.0381
     23 C          -3.1698    7.6056   -0.3920 C.ar    1  LIG1        0.0422
     24 S          -3.3254    6.0767    0.4042 S.2     1  LIG1       -0.0847
     25 N           1.0758    6.1694   -2.1163 N.1     1  LIG1       -0.1908
     26 C           0.0623    6.3203   -1.6000 C.1     1  LIG1        0.1014
     27 S          -1.4155    9.0705   -2.0446 S.3     1  LIG1       -0.1402
     28 H          -2.4318    9.8813   -1.7244 H       1  LIG1        0.1072
     29 C          -4.2289    8.6184   -0.2823 C.ar    1  LIG1        0.0454
     30 C          -4.1740    9.7900    0.4283 C.ar    1  LIG1        0.0802
     31 C          -5.3733   10.5775    0.3275 C.ar    1  LIG1        0.0298
     32 C          -6.2993    9.9617   -0.4580 C.ar    1  LIG1       -0.0093
     33 S          -5.7376    8.4605   -1.0835 S.2     1  LIG1       -0.0937
     34 H          -7.2892   10.3105   -0.7050 H       1  LIG1        0.0705
     35 N          -2.1115   10.4863    1.8263 N.1     1  LIG1       -0.1908
     36 C          -3.0245   10.1701    1.2074 C.1     1  LIG1        0.1014
     37 S          -5.5130   12.1217    1.1791 S.3     1  LIG1       -0.1408
     38 H          -6.7250   12.4080    0.6985 H       1  LIG1        0.1072
@<TRIPOS>BOND
     1    25    26    3
     2    27    28    1
     3    27    22    1
     4    26    21    1
     5     9    10    1
     6     9     3    1
     7     7     8    3
     8    33    32   ar
     9    33    29   ar
    10    22    21   ar
    11    22    23   ar
    12    21    20   ar
    13     8     2    1
    14    34    32    1
    15    32    31   ar
    16    15    14   ar
    17    15    11   ar
    18    23    29    1
    19    23    24   ar
    20     3     2   ar
    21     3     4   ar
    22    29    30   ar
    23     2     1   ar
    24    20    14    1
    25    20    24   ar
    26    14    13   ar
    27     4    11    1
    28     4     5   ar
    29    11    12   ar
    30    31    30   ar
    31    31    37    1
    32     1     6    1
    33     1     5   ar
    34    30    36    1
    35    38    37    1
    36    13    12   ar
    37    13    18    1
    38    12    17    1
    39    36    35    3
    40    19    18    1
    41    17    16    3
