@<TRIPOS>MOLECULE
mol_data/opt/m06hf/geoms/mol2/5dg5dg-.out
 20 21 0 0 0
SMALL
GASTEIGER

@<TRIPOS>ATOM
      1 C          -1.9202   -1.7822    0.7784 C.ar    1  LIG1       -0.0052
      2 C          -0.7842   -1.8321    0.0261 C.ar    1  LIG1        0.0725
      3 C          -0.2993   -0.5322   -0.3623 C.ar    1  LIG1        0.0375
      4 C          -1.1055    0.4578    0.1246 C.ar    1  LIG1        0.0416
      5 S          -2.4312   -0.1764    1.0447 S.2     1  LIG1       -0.0937
      6 H          -2.4645   -2.6200    1.1830 H       1  LIG1        0.0707
      7 N           0.3719   -4.0379   -0.6770 N.1     1  LIG1       -0.1908
      8 C          -0.1432   -3.0636   -0.3576 C.1     1  LIG1        0.1008
      9 S           1.1322   -0.3770   -1.3779 S.3     1  LIG1       -0.1403
     10 H           1.1080    0.9597   -1.4092 H       1  LIG1        0.1072
     11 C          -0.9487    1.9063   -0.0596 C.ar    1  LIG1        0.0454
     12 C           0.0705    2.6975    0.4058 C.ar    1  LIG1        0.0802
     13 C          -0.0618    4.0808    0.0333 C.ar    1  LIG1        0.0298
     14 C          -1.1892    4.2879   -0.6989 C.ar    1  LIG1       -0.0093
     15 S          -2.0766    2.8353   -0.9604 S.2     1  LIG1       -0.0937
     16 H          -1.5501    5.2207   -1.1010 H       1  LIG1        0.0705
     17 N           2.0336    1.7866    1.8235 N.1     1  LIG1       -0.1908
     18 C           1.1553    2.1837    1.2006 C.1     1  LIG1        0.1014
     19 S           1.1424    5.2742    0.5430 S.3     1  LIG1       -0.1408
     20 H           0.5989    6.2832   -0.1447 H       1  LIG1        0.1072
@<TRIPOS>BOND
     1    10     9    1
     2     9     3    1
     3    16    14    1
     4    15    14   ar
     5    15    11   ar
     6    14    13   ar
     7     7     8    3
     8     3     2   ar
     9     3     4   ar
    10     8     2    1
    11    20    19    1
    12    11     4    1
    13    11    12   ar
    14     2     1   ar
    15    13    12   ar
    16    13    19    1
    17     4     5   ar
    18    12    18    1
    19     1     5   ar
    20     1     6    1
    21    18    17    3
