@<TRIPOS>MOLECULE
mol_data/opt/m06hf/geoms/mol2/5dg5dg-5dg5dg.out
 38 41 0 0 0
SMALL
GASTEIGER

@<TRIPOS>ATOM
      1 C          -1.8330   -2.0228    0.3925 C.ar    1  LIG1       -0.0052
      2 C          -0.6326   -1.9091   -0.2438 C.ar    1  LIG1        0.0725
      3 C          -0.1590   -0.5507   -0.3362 C.ar    1  LIG1        0.0375
      4 C          -1.0414    0.3130    0.2512 C.ar    1  LIG1        0.0416
      5 S          -2.4244   -0.5080    0.9050 S.2     1  LIG1       -0.0937
      6 H          -2.3807   -2.9324    0.5811 H       1  LIG1        0.0707
      7 N           0.6470   -3.9302   -1.2304 N.1     1  LIG1       -0.1908
      8 C           0.0791   -3.0370   -0.7878 C.1     1  LIG1        0.1008
      9 S           1.3504   -0.1911   -1.1664 S.3     1  LIG1       -0.1403
     10 H           1.2602    1.1346   -1.0081 H       1  LIG1        0.1072
     11 C          -0.9318    1.7726    0.3549 C.ar    1  LIG1        0.0460
     12 C           0.0312    2.4919    1.0158 C.ar    1  LIG1        0.0808
     13 C          -0.1401    3.9173    0.9184 C.ar    1  LIG1        0.0381
     14 C          -1.2482    4.2260    0.1771 C.ar    1  LIG1        0.0422
     15 S          -2.0625    2.8148   -0.4083 S.2     1  LIG1       -0.0847
     16 N           1.9427    1.3852    2.3608 N.1     1  LIG1       -0.1908
     17 C           1.0894    1.8686    1.7657 C.1     1  LIG1        0.1014
     18 S           0.9701    5.0038    1.7455 S.3     1  LIG1       -0.1402
     19 H           0.3391    6.1220    1.3734 H       1  LIG1        0.1072
     20 C          -1.7645    5.5618   -0.1453 C.ar    1  LIG1        0.0460
     21 C          -1.1350    6.5367   -0.8773 C.ar    1  LIG1        0.0808
     22 C          -1.9063    7.7421   -1.0144 C.ar    1  LIG1        0.0381
     23 C          -3.1129    7.6277   -0.3815 C.ar    1  LIG1        0.0422
     24 S          -3.3036    6.0922    0.3943 S.2     1  LIG1       -0.0847
     25 N           1.1879    6.1906   -1.9610 N.1     1  LIG1       -0.1908
     26 C           0.1573    6.3410   -1.4797 C.1     1  LIG1        0.1014
     27 S          -1.2921    9.1000   -1.9537 S.3     1  LIG1       -0.1402
     28 H          -2.3144    9.9139   -1.6617 H       1  LIG1        0.1072
     29 C          -4.1793    8.6364   -0.3128 C.ar    1  LIG1        0.0454
     30 C          -4.1621    9.8091    0.3984 C.ar    1  LIG1        0.0802
     31 C          -5.3650   10.5839    0.2522 C.ar    1  LIG1        0.0298
     32 C          -6.2540    9.9589   -0.5676 C.ar    1  LIG1       -0.0093
     33 S          -5.6571    8.4612   -1.1665 S.2     1  LIG1       -0.0937
     34 H          -7.2341   10.3019   -0.8579 H       1  LIG1        0.0705
     35 N          -2.1590   10.5216    1.8727 N.1     1  LIG1       -0.1908
     36 C          -3.0467   10.1988    1.2210 C.1     1  LIG1        0.1014
     37 S          -5.5578   12.1329    1.0862 S.3     1  LIG1       -0.1408
     38 H          -6.8412   12.2804    0.7459 H       1  LIG1        0.1072
@<TRIPOS>BOND
     1    25    26    3
     2    27    28    1
     3    27    22    1
     4    26    21    1
     5     7     8    3
     6    33    32   ar
     7    33    29   ar
     8     9    10    1
     9     9     3    1
    10    22    21   ar
    11    22    23   ar
    12    21    20   ar
    13    34    32    1
    14     8     2    1
    15    32    31   ar
    16    15    14   ar
    17    15    11   ar
    18    23    29    1
    19    23    24   ar
    20     3     2   ar
    21     3     4   ar
    22    29    30   ar
    23     2     1   ar
    24    20    14    1
    25    20    24   ar
    26    14    13   ar
    27     4    11    1
    28     4     5   ar
    29    31    30   ar
    30    31    37    1
    31    11    12   ar
    32     1     6    1
    33     1     5   ar
    34    30    36    1
    35    38    37    1
    36    13    12   ar
    37    13    18    1
    38    12    17    1
    39    36    35    3
    40    19    18    1
    41    17    16    3
