@<TRIPOS>MOLECULE
mol_data/opt/m06hf/geoms/mol2/5dh.out
 12 12 0 0 0
SMALL
GASTEIGER

@<TRIPOS>ATOM
      1 C          -2.1421   -1.7103    0.0375 C.ar    1  LIG1       -0.0051
      2 C          -0.7790   -1.6791   -0.0091 C.ar    1  LIG1        0.0793
      3 C          -0.2340   -0.3405   -0.0514 C.ar    1  LIG1        0.0492
      4 C          -1.2324    0.5874   -0.0374 C.ar    1  LIG1       -0.0024
      5 S          -2.7961   -0.1358    0.0337 S.2     1  LIG1       -0.1019
      6 H          -2.7701   -2.5856    0.0697 H       1  LIG1        0.0707
      7 H          -1.1278    1.6596   -0.0485 H       1  LIG1        0.0712
      8 N           0.7833   -3.7391   -0.0658 N.1     1  LIG1       -0.1908
      9 C           0.0647   -2.8440   -0.0328 C.1     1  LIG1        0.1015
     10 N           1.1349   -0.1048   -0.0412 N.pl3   1  LIG1       -0.3566
     11 H           1.6979   -0.8694   -0.3893 H       1  LIG1        0.1424
     12 H           1.4193    0.7904   -0.4111 H       1  LIG1        0.1424
@<TRIPOS>BOND
     1    12    10    1
     2    11    10    1
     3     8     9    3
     4     3    10    1
     5     3     4   ar
     6     3     2   ar
     7     7     4    1
     8     4     5   ar
     9     9     2    1
    10     2     1   ar
    11     5     1   ar
    12     1     6    1
