@<TRIPOS>MOLECULE
mol_data/opt/m06hf/geoms/mol2/5dh5dh5dh.out
 32 34 0 0 0
SMALL
GASTEIGER

@<TRIPOS>ATOM
      1 C          -1.8789   -1.7291   -1.2674 C.ar    1  LIG1       -0.0045
      2 C          -0.8909   -1.8647   -0.3399 C.ar    1  LIG1        0.0800
      3 C          -0.3373   -0.6061    0.1152 C.ar    1  LIG1        0.0577
      4 C          -0.9561    0.4461   -0.5211 C.ar    1  LIG1        0.0491
      5 S          -2.1747   -0.0943   -1.6413 S.2     1  LIG1       -0.0929
      6 H          -2.4250   -2.5237   -1.7499 H       1  LIG1        0.0707
      7 N           0.0047   -4.0932    0.6159 N.1     1  LIG1       -0.1908
      8 C          -0.4157   -3.1219    0.1711 C.1     1  LIG1        0.1016
      9 N           0.6025   -0.5596    1.1108 N.pl3   1  LIG1       -0.3561
     10 H           1.0203   -1.4445    1.3626 H       1  LIG1        0.1424
     11 H           1.2479    0.2155    1.1210 H       1  LIG1        0.1424
     12 C          -0.7490    1.8743   -0.3070 C.ar    1  LIG1        0.0475
     13 C           0.4380    2.5573   -0.2281 C.ar    1  LIG1        0.0883
     14 C           0.3005    3.9794   -0.0087 C.ar    1  LIG1        0.0583
     15 C          -1.0269    4.3326    0.0436 C.ar    1  LIG1        0.0497
     16 S          -2.0750    2.9510   -0.1278 S.2     1  LIG1       -0.0839
     17 N           2.7630    1.4578   -0.4705 N.1     1  LIG1       -0.1908
     18 C           1.7226    1.9394   -0.3841 C.1     1  LIG1        0.1022
     19 N           1.3961    4.7810    0.1829 N.pl3   1  LIG1       -0.3561
     20 H           2.2850    4.3887   -0.0942 H       1  LIG1        0.1424
     21 H           1.3027    5.7625   -0.0313 H       1  LIG1        0.1424
     22 C          -1.5982    5.6536    0.2872 C.ar    1  LIG1        0.0469
     23 C          -1.2541    6.8516   -0.2898 C.ar    1  LIG1        0.0876
     24 C          -2.0189    7.9786    0.1894 C.ar    1  LIG1        0.0499
     25 C          -2.9400    7.5822    1.1113 C.ar    1  LIG1       -0.0018
     26 S          -2.8597    5.8892    1.4332 S.2     1  LIG1       -0.0929
     27 H          -3.6555    8.2003    1.6279 H       1  LIG1        0.0712
     28 N           0.5770    7.1177   -2.0935 N.1     1  LIG1       -0.1908
     29 C          -0.2491    6.9870   -1.3047 C.1     1  LIG1        0.1022
     30 N          -1.7583    9.2729   -0.2411 N.pl3   1  LIG1       -0.3565
     31 H          -1.3890    9.3439   -1.1802 H       1  LIG1        0.1424
     32 H          -2.4969    9.9387   -0.0642 H       1  LIG1        0.1424
@<TRIPOS>BOND
     1    28    29    3
     2     6     1    1
     3     5     1   ar
     4     5     4   ar
     5    29    23    1
     6     1     2   ar
     7    31    30    1
     8     4    12    1
     9     4     3   ar
    10    17    18    3
    11    18    13    1
    12     2     3   ar
    13     2     8    1
    14    12    13   ar
    15    12    16   ar
    16    23    24   ar
    17    23    22   ar
    18    30    32    1
    19    30    24    1
    20    13    14   ar
    21    16    15   ar
    22    20    19    1
    23    21    19    1
    24    14    15   ar
    25    14    19    1
    26    15    22    1
    27     3     9    1
    28     8     7    3
    29    24    25   ar
    30    22    26   ar
    31     9    11    1
    32     9    10    1
    33    25    26   ar
    34    25    27    1
