@<TRIPOS>MOLECULE
mol_data/opt/m06hf/geoms/mol2/5dh5dh5dh5dh.out
 42 45 0 0 0
SMALL
GASTEIGER

@<TRIPOS>ATOM
      1 C          -1.5908   -1.6028   -1.9153 C.ar    1  LIG1       -0.0045
      2 C          -0.9919   -1.8105   -0.7104 C.ar    1  LIG1        0.0800
      3 C          -0.5266   -0.5975   -0.0689 C.ar    1  LIG1        0.0577
      4 C          -0.8039    0.4971   -0.8580 C.ar    1  LIG1        0.0491
      5 S          -1.6056    0.0475   -2.3390 S.2     1  LIG1       -0.0929
      6 H          -2.0003   -2.3544   -2.5710 H       1  LIG1        0.0707
      7 N          -0.6529   -4.0911    0.4572 N.1     1  LIG1       -0.1908
      8 C          -0.8194   -3.0961   -0.0909 C.1     1  LIG1        0.1016
      9 N           0.0158   -0.6235    1.1871 N.pl3   1  LIG1       -0.3561
     10 H           0.2284   -1.5400    1.5559 H       1  LIG1        0.1424
     11 H           0.6837    0.0885    1.4391 H       1  LIG1        0.1424
     12 C          -0.5945    1.9057   -0.5467 C.ar    1  LIG1        0.0475
     13 C           0.5170    2.5058   -0.0112 C.ar    1  LIG1        0.0883
     14 C           0.3931    3.9324    0.1926 C.ar    1  LIG1        0.0583
     15 C          -0.8349    4.3756   -0.2420 C.ar    1  LIG1        0.0497
     16 S          -1.8239    3.0705   -0.8389 S.2     1  LIG1       -0.0839
     17 N           2.7062    1.2745    0.5888 N.1     1  LIG1       -0.1908
     18 C           1.7316    1.8105    0.2978 C.1     1  LIG1        0.1022
     19 N           1.3825    4.6465    0.8112 N.pl3   1  LIG1       -0.3561
     20 H           2.2740    4.1817    0.9116 H       1  LIG1        0.1424
     21 H           1.4505    5.6344    0.6229 H       1  LIG1        0.1424
     22 C          -1.3861    5.7226   -0.1619 C.ar    1  LIG1        0.0475
     23 C          -0.7828    6.9135   -0.4806 C.ar    1  LIG1        0.0883
     24 C          -1.6077    8.0822   -0.2682 C.ar    1  LIG1        0.0583
     25 C          -2.8543    7.7185    0.1830 C.ar    1  LIG1        0.0497
     26 S          -2.9932    5.9918    0.3869 S.2     1  LIG1       -0.0839
     27 N           1.6196    7.1370   -1.4027 N.1     1  LIG1       -0.1908
     28 C           0.5445    7.0206   -1.0117 C.1     1  LIG1        0.1022
     29 N          -1.1074    9.3448   -0.4453 N.pl3   1  LIG1       -0.3561
     30 H          -0.2527    9.4169   -0.9786 H       1  LIG1        0.1424
     31 H          -1.7606   10.0946   -0.6113 H       1  LIG1        0.1424
     32 C          -3.9686    8.5843    0.5536 C.ar    1  LIG1        0.0469
     33 C          -4.4708    9.6693   -0.1232 C.ar    1  LIG1        0.0876
     34 C          -5.5907   10.3056    0.5297 C.ar    1  LIG1        0.0499
     35 C          -5.9128    9.6552    1.6824 C.ar    1  LIG1       -0.0018
     36 S          -4.8588    8.3281    2.0030 S.2     1  LIG1       -0.0929
     37 H          -6.7060    9.8971    2.3697 H       1  LIG1        0.0712
     38 N          -3.5884   10.5208   -2.3970 N.1     1  LIG1       -0.1908
     39 C          -3.9803   10.1209   -1.3930 C.1     1  LIG1        0.1022
     40 N          -6.1800   11.4532    0.0175 N.pl3   1  LIG1       -0.3565
     41 H          -6.0909   11.5699   -0.9835 H       1  LIG1        0.1424
     42 H          -7.1144   11.6405    0.3507 H       1  LIG1        0.1424
@<TRIPOS>BOND
     1     6     1    1
     2    38    39    3
     3     5     1   ar
     4     5     4   ar
     5     1     2   ar
     6    27    28    3
     7    39    33    1
     8    28    23    1
     9    41    40    1
    10    30    29    1
    11     4    12    1
    12     4     3   ar
    13    16    12   ar
    14    16    15   ar
    15     2     8    1
    16     2     3   ar
    17    31    29    1
    18    12    13   ar
    19    23    24   ar
    20    23    22   ar
    21    29    24    1
    22    24    25   ar
    23    15    22    1
    24    15    14   ar
    25    22    26   ar
    26    33    34   ar
    27    33    32   ar
    28     8     7    3
    29     3     9    1
    30    13    14   ar
    31    13    18    1
    32    40    42    1
    33    40    34    1
    34    25    26   ar
    35    25    32    1
    36    14    19    1
    37    18    17    3
    38    34    35   ar
    39    32    36   ar
    40    21    19    1
    41    19    20    1
    42     9    11    1
    43     9    10    1
    44    35    36   ar
    45    35    37    1
