@<TRIPOS>MOLECULE
mol_data/opt/m06hf/geoms/mol2/5dh5dh-5dh5dh.out
 42 45 0 0 0
SMALL
GASTEIGER

@<TRIPOS>ATOM
      1 C          -1.6063   -1.5948   -1.9245 C.ar    1  LIG1       -0.0045
      2 C          -0.9978   -1.8077   -0.7253 C.ar    1  LIG1        0.0800
      3 C          -0.5273   -0.5976   -0.0823 C.ar    1  LIG1        0.0577
      4 C          -0.8107    0.5005   -0.8644 C.ar    1  LIG1        0.0491
      5 S          -1.6243    0.0573   -2.3409 S.2     1  LIG1       -0.0929
      6 H          -2.0211   -2.3435   -2.5801 H       1  LIG1        0.0707
      7 N          -0.6497   -4.0935    0.4296 N.1     1  LIG1       -0.1908
      8 C          -0.8205   -3.0961   -0.1128 C.1     1  LIG1        0.1016
      9 N           0.0251   -0.6291    1.1692 N.pl3   1  LIG1       -0.3561
     10 H           0.2406   -1.5472    1.5323 H       1  LIG1        0.1424
     11 H           0.6952    0.0817    1.4189 H       1  LIG1        0.1424
     12 C          -0.5987    1.9077   -0.5487 C.ar    1  LIG1        0.0475
     13 C           0.5171    2.5053   -0.0194 C.ar    1  LIG1        0.0883
     14 C           0.3950    3.9311    0.1915 C.ar    1  LIG1        0.0583
     15 C          -0.8364    4.3762   -0.2313 C.ar    1  LIG1        0.0497
     16 S          -1.8303    3.0738   -0.8260 S.2     1  LIG1       -0.0839
     17 N           2.7109    1.2712    0.5576 N.1     1  LIG1       -0.1908
     18 C           1.7340    1.8086    0.2768 C.1     1  LIG1        0.1022
     19 N           1.3894    4.6424    0.8053 N.pl3   1  LIG1       -0.3561
     20 H           2.2816    4.1771    0.8965 H       1  LIG1        0.1424
     21 H           1.4560    5.6311    0.6207 H       1  LIG1        0.1424
     22 C          -1.3868    5.7229   -0.1409 C.ar    1  LIG1        0.0475
     23 C          -0.7859    6.9151   -0.4593 C.ar    1  LIG1        0.0883
     24 C          -1.6090    8.0829   -0.2352 C.ar    1  LIG1        0.0583
     25 C          -2.8520    7.7173    0.2243 C.ar    1  LIG1        0.0497
     26 S          -2.9895    5.9898    0.4218 S.2     1  LIG1       -0.0839
     27 N           1.6090    7.1424   -1.3996 N.1     1  LIG1       -0.1908
     28 C           0.5371    7.0244   -1.0005 C.1     1  LIG1        0.1022
     29 N          -1.1100    9.3463   -0.4109 N.pl3   1  LIG1       -0.3561
     30 H          -0.2596    9.4206   -0.9507 H       1  LIG1        0.1424
     31 H          -1.7644   10.0968   -0.5683 H       1  LIG1        0.1424
     32 C          -3.9632    8.5817    0.6076 C.ar    1  LIG1        0.0469
     33 C          -4.4707    9.6696   -0.0604 C.ar    1  LIG1        0.0876
     34 C          -5.5852   10.3032    0.6042 C.ar    1  LIG1        0.0499
     35 C          -5.8982    9.6478    1.7566 C.ar    1  LIG1       -0.0018
     36 S          -4.8418    8.3192    2.0629 S.2     1  LIG1       -0.0929
     37 H          -6.6858    9.8867    2.4513 H       1  LIG1        0.0712
     38 N          -3.6064   10.5309   -2.3375 N.1     1  LIG1       -0.1908
     39 C          -3.9903   10.1266   -1.3322 C.1     1  LIG1        0.1022
     40 N          -6.1785   11.4529    0.1017 N.pl3   1  LIG1       -0.3565
     41 H          -6.0974   11.5740   -0.8995 H       1  LIG1        0.1424
     42 H          -7.1103   11.6389    0.4432 H       1  LIG1        0.1424
@<TRIPOS>BOND
     1     6     1    1
     2     5     1   ar
     3     5     4   ar
     4    38    39    3
     5     1     2   ar
     6    27    28    3
     7    39    33    1
     8    28    23    1
     9    30    29    1
    10    41    40    1
    11     4    12    1
    12     4     3   ar
    13    16    12   ar
    14    16    15   ar
    15     2     8    1
    16     2     3   ar
    17    31    29    1
    18    12    13   ar
    19    23    24   ar
    20    23    22   ar
    21    29    24    1
    22    24    25   ar
    23    15    22    1
    24    15    14   ar
    25    22    26   ar
    26     8     7    3
    27     3     9    1
    28    33    34   ar
    29    33    32   ar
    30    13    14   ar
    31    13    18    1
    32    40    42    1
    33    40    34    1
    34    14    19    1
    35    25    26   ar
    36    25    32    1
    37    18    17    3
    38    34    35   ar
    39    32    36   ar
    40    21    19    1
    41    19    20    1
    42     9    11    1
    43     9    10    1
    44    35    36   ar
    45    35    37    1
