@<TRIPOS>MOLECULE
mol_data/opt/m06hf/geoms/mol2/5dh5dh5dh5dh-.out
 42 45 0 0 0
SMALL
GASTEIGER

@<TRIPOS>ATOM
      1 C          -1.5861   -1.6043   -1.9143 C.ar    1  LIG1       -0.0045
      2 C          -0.9883   -1.8109   -0.7087 C.ar    1  LIG1        0.0800
      3 C          -0.5242   -0.5972   -0.0676 C.ar    1  LIG1        0.0577
      4 C          -0.8012    0.4967   -0.8578 C.ar    1  LIG1        0.0491
      5 S          -1.6013    0.0456   -2.3393 S.2     1  LIG1       -0.0929
      6 H          -1.9947   -2.3566   -2.5698 H       1  LIG1        0.0707
      7 N          -0.6495   -4.0905    0.4609 N.1     1  LIG1       -0.1908
      8 C          -0.8159   -3.0960   -0.0881 C.1     1  LIG1        0.1016
      9 N           0.0170   -0.6220    1.1889 N.pl3   1  LIG1       -0.3561
     10 H           0.2296   -1.5382    1.5586 H       1  LIG1        0.1424
     11 H           0.6844    0.0904    1.4410 H       1  LIG1        0.1424
     12 C          -0.5927    1.9056   -0.5473 C.ar    1  LIG1        0.0475
     13 C           0.5180    2.5065   -0.0112 C.ar    1  LIG1        0.0883
     14 C           0.3934    3.9333    0.1914 C.ar    1  LIG1        0.0583
     15 C          -0.8344    4.3756   -0.2447 C.ar    1  LIG1        0.0497
     16 S          -1.8223    3.0696   -0.8416 S.2     1  LIG1       -0.0839
     17 N           2.7072    1.2766    0.5917 N.1     1  LIG1       -0.1908
     18 C           1.7326    1.8120    0.2994 C.1     1  LIG1        0.1022
     19 N           1.3819    4.6482    0.8103 N.pl3   1  LIG1       -0.3561
     20 H           2.2734    4.1839    0.9120 H       1  LIG1        0.1424
     21 H           1.4497    5.6360    0.6213 H       1  LIG1        0.1424
     22 C          -1.3863    5.7225   -0.1661 C.ar    1  LIG1        0.0475
     23 C          -0.7832    6.9133   -0.4852 C.ar    1  LIG1        0.0883
     24 C          -1.6088    8.0818   -0.2744 C.ar    1  LIG1        0.0583
     25 C          -2.8557    7.7179    0.1758 C.ar    1  LIG1        0.0497
     26 S          -2.9941    5.9913    0.3809 S.2     1  LIG1       -0.0839
     27 N           1.6199    7.1372   -1.4052 N.1     1  LIG1       -0.1908
     28 C           0.5446    7.0206   -1.0151 C.1     1  LIG1        0.1022
     29 N          -1.1089    9.3445   -0.4520 N.pl3   1  LIG1       -0.3561
     30 H          -0.2537    9.4166   -0.9846 H       1  LIG1        0.1424
     31 H          -1.7622   10.0939   -0.6191 H       1  LIG1        0.1424
     32 C          -3.9707    8.5836    0.5447 C.ar    1  LIG1        0.0469
     33 C          -4.4728    9.6678   -0.1334 C.ar    1  LIG1        0.0876
     34 C          -5.5935   10.3042    0.5180 C.ar    1  LIG1        0.0499
     35 C          -5.9165    9.6545    1.6709 C.ar    1  LIG1       -0.0018
     36 S          -4.8622    8.3281    1.9934 S.2     1  LIG1       -0.0929
     37 H          -6.7104    9.8965    2.3572 H       1  LIG1        0.0712
     38 N          -3.5886   10.5179   -2.4070 N.1     1  LIG1       -0.1908
     39 C          -3.9812   10.1186   -1.4031 C.1     1  LIG1        0.1022
     40 N          -6.1829   11.4510    0.0043 N.pl3   1  LIG1       -0.3565
     41 H          -6.0929   11.5670   -0.9967 H       1  LIG1        0.1424
     42 H          -7.1178   11.6382    0.3365 H       1  LIG1        0.1424
@<TRIPOS>BOND
     1     6     1    1
     2    38    39    3
     3     5     1   ar
     4     5     4   ar
     5     1     2   ar
     6    27    28    3
     7    39    33    1
     8    28    23    1
     9    41    40    1
    10    30    29    1
    11     4    12    1
    12     4     3   ar
    13    16    12   ar
    14    16    15   ar
    15     2     8    1
    16     2     3   ar
    17    31    29    1
    18    12    13   ar
    19    23    24   ar
    20    23    22   ar
    21    29    24    1
    22    24    25   ar
    23    15    22    1
    24    15    14   ar
    25    22    26   ar
    26    33    34   ar
    27    33    32   ar
    28     8     7    3
    29     3     9    1
    30    13    14   ar
    31    13    18    1
    32    40    42    1
    33    40    34    1
    34    25    26   ar
    35    25    32    1
    36    14    19    1
    37    18    17    3
    38    34    35   ar
    39    32    36   ar
    40    21    19    1
    41    19    20    1
    42     9    11    1
    43     9    10    1
    44    35    36   ar
    45    35    37    1
