@<TRIPOS>MOLECULE
mol_data/opt/m06hf/geoms/mol2/5dh5dh-5dh-5dh-.out
 42 45 0 0 0
SMALL
GASTEIGER

@<TRIPOS>ATOM
      1 C          -1.5870   -1.5951   -1.9316 C.ar    1  LIG1       -0.0045
      2 C          -0.9899   -1.8078   -0.7267 C.ar    1  LIG1        0.0800
      3 C          -0.5258   -0.5975   -0.0794 C.ar    1  LIG1        0.0577
      4 C          -0.8021    0.5004   -0.8643 C.ar    1  LIG1        0.0491
      5 S          -1.6015    0.0569   -2.3485 S.2     1  LIG1       -0.0929
      6 H          -1.9954   -2.3440   -2.5911 H       1  LIG1        0.0707
      7 N          -0.6524   -4.0933    0.4318 N.1     1  LIG1       -0.1908
      8 C          -0.8182   -3.0960   -0.1123 C.1     1  LIG1        0.1016
      9 N           0.0146   -0.6286    1.1773 N.pl3   1  LIG1       -0.3561
     10 H           0.2268   -1.5467    1.5427 H       1  LIG1        0.1424
     11 H           0.6820    0.0824    1.4333 H       1  LIG1        0.1424
     12 C          -0.5934    1.9077   -0.5467 C.ar    1  LIG1        0.0475
     13 C           0.5171    2.5057   -0.0070 C.ar    1  LIG1        0.0883
     14 C           0.3928    3.9315    0.2026 C.ar    1  LIG1        0.0583
     15 C          -0.8347    4.3763   -0.2320 C.ar    1  LIG1        0.0497
     16 S          -1.8225    3.0735   -0.8360 S.2     1  LIG1       -0.0839
     17 N           2.7056    1.2722    0.5911 N.1     1  LIG1       -0.1908
     18 C           1.7314    1.8093    0.3009 C.1     1  LIG1        0.1022
     19 N           1.3811    4.6431    0.8257 N.pl3   1  LIG1       -0.3561
     20 H           2.2724    4.1780    0.9255 H       1  LIG1        0.1424
     21 H           1.4492    5.6318    0.6415 H       1  LIG1        0.1424
     22 C          -1.3862    5.7229   -0.1471 C.ar    1  LIG1        0.0475
     23 C          -0.7826    6.9151   -0.4599 C.ar    1  LIG1        0.0883
     24 C          -1.6080    8.0828   -0.2438 C.ar    1  LIG1        0.0583
     25 C          -2.8553    7.7170    0.2039 C.ar    1  LIG1        0.0497
     26 S          -2.9942    5.9895    0.4003 S.2     1  LIG1       -0.0839
     27 N           1.6211    7.1429   -1.3774 N.1     1  LIG1       -0.1908
     28 C           0.5455    7.0247   -0.9885 C.1     1  LIG1        0.1022
     29 N          -1.1077    9.3462   -0.4149 N.pl3   1  LIG1       -0.3561
     30 H          -0.2522    9.4207   -0.9466 H       1  LIG1        0.1424
     31 H          -1.7607   10.0966   -0.5787 H       1  LIG1        0.1424
     32 C          -3.9703    8.5811    0.5763 C.ar    1  LIG1        0.0469
     33 C          -4.4717    9.6689   -0.0966 C.ar    1  LIG1        0.0876
     34 C          -5.5926   10.3022    0.5572 C.ar    1  LIG1        0.0499
     35 C          -5.9165    9.6470    1.7067 C.ar    1  LIG1       -0.0018
     36 S          -4.8627    8.3187    2.0233 S.2     1  LIG1       -0.0929
     37 H          -6.7107    9.8858    2.3938 H       1  LIG1        0.0712
     38 N          -3.5859   10.5299   -2.3655 N.1     1  LIG1       -0.1908
     39 C          -3.9793   10.1258   -1.3638 C.1     1  LIG1        0.1022
     40 N          -6.1814   11.4518    0.0488 N.pl3   1  LIG1       -0.3565
     41 H          -6.0908   11.5727   -0.9515 H       1  LIG1        0.1424
     42 H          -7.1164   11.6376    0.3814 H       1  LIG1        0.1424
@<TRIPOS>BOND
     1     6     1    1
     2    38    39    3
     3     5     1   ar
     4     5     4   ar
     5     1     2   ar
     6    27    28    3
     7    39    33    1
     8    28    23    1
     9    41    40    1
    10    30    29    1
    11     4    12    1
    12     4     3   ar
    13    16    12   ar
    14    16    15   ar
    15     2     8    1
    16     2     3   ar
    17    31    29    1
    18    12    13   ar
    19    23    24   ar
    20    23    22   ar
    21    29    24    1
    22    24    25   ar
    23    15    22    1
    24    15    14   ar
    25    22    26   ar
    26     8     7    3
    27    33    34   ar
    28    33    32   ar
    29     3     9    1
    30    13    14   ar
    31    13    18    1
    32    40    42    1
    33    40    34    1
    34    14    19    1
    35    25    26   ar
    36    25    32    1
    37    18    17    3
    38    34    35   ar
    39    32    36   ar
    40    21    19    1
    41    19    20    1
    42     9    11    1
    43     9    10    1
    44    35    36   ar
    45    35    37    1
