@<TRIPOS>MOLECULE
mol_data/opt/m06hf/geoms/mol2/5dh5dh-5dh5dh-.out
 42 45 0 0 0
SMALL
GASTEIGER

@<TRIPOS>ATOM
      1 C          -1.6035   -1.5975   -1.9194 C.ar    1  LIG1       -0.0045
      2 C          -0.9955   -1.8086   -0.7197 C.ar    1  LIG1        0.0800
      3 C          -0.5256   -0.5975   -0.0781 C.ar    1  LIG1        0.0577
      4 C          -0.8090    0.4994   -0.8618 C.ar    1  LIG1        0.0491
      5 S          -1.6218    0.0540   -2.3382 S.2     1  LIG1       -0.0929
      6 H          -2.0178   -2.3472   -2.5743 H       1  LIG1        0.0707
      7 N          -0.6473   -4.0927    0.4385 N.1     1  LIG1       -0.1908
      8 C          -0.8181   -3.0961   -0.1053 C.1     1  LIG1        0.1016
      9 N           0.0262   -0.6271    1.1737 N.pl3   1  LIG1       -0.3561
     10 H           0.2417   -1.5447    1.5382 H       1  LIG1        0.1424
     11 H           0.6959    0.0843    1.4227 H       1  LIG1        0.1424
     12 C          -0.5976    1.9071   -0.5479 C.ar    1  LIG1        0.0475
     13 C           0.5178    2.5058   -0.0190 C.ar    1  LIG1        0.0883
     14 C           0.3953    3.9318    0.1900 C.ar    1  LIG1        0.0583
     15 C          -0.8361    4.3760   -0.2340 C.ar    1  LIG1        0.0497
     16 S          -1.8293    3.0725   -0.8274 S.2     1  LIG1       -0.0839
     17 N           2.7117    1.2732    0.5607 N.1     1  LIG1       -0.1908
     18 C           1.7349    1.8099    0.2787 C.1     1  LIG1        0.1022
     19 N           1.3891    4.6442    0.8031 N.pl3   1  LIG1       -0.3561
     20 H           2.2814    4.1793    0.8955 H       1  LIG1        0.1424
     21 H           1.4556    5.6327    0.6172 H       1  LIG1        0.1424
     22 C          -1.3869    5.7227   -0.1458 C.ar    1  LIG1        0.0475
     23 C          -0.7862    6.9146   -0.4655 C.ar    1  LIG1        0.0883
     24 C          -1.6097    8.0825   -0.2434 C.ar    1  LIG1        0.0583
     25 C          -2.8529    7.7172    0.2160 C.ar    1  LIG1        0.0497
     26 S          -2.9899    5.9899    0.4158 S.2     1  LIG1       -0.0839
     27 N           1.6090    7.1413   -1.4050 N.1     1  LIG1       -0.1908
     28 C           0.5370    7.0236   -1.0063 C.1     1  LIG1        0.1022
     29 N          -1.1111    9.3458   -0.4206 N.pl3   1  LIG1       -0.3561
     30 H          -0.2604    9.4196   -0.9601 H       1  LIG1        0.1424
     31 H          -1.7656   10.0959   -0.5794 H       1  LIG1        0.1424
     32 C          -3.9646    8.5817    0.5975 C.ar    1  LIG1        0.0469
     33 C          -4.4721    9.6686   -0.0722 C.ar    1  LIG1        0.0876
     34 C          -5.5871   10.3027    0.5909 C.ar    1  LIG1        0.0499
     35 C          -5.9004    9.6489    1.7441 C.ar    1  LIG1       -0.0018
     36 S          -4.8438    8.3211    2.0528 S.2     1  LIG1       -0.0929
     37 H          -6.6884    9.8885    2.4381 H       1  LIG1        0.0712
     38 N          -3.6070   10.5269   -2.3502 N.1     1  LIG1       -0.1908
     39 C          -3.9912   10.1239   -1.3444 C.1     1  LIG1        0.1022
     40 N          -6.1805   11.4516    0.0865 N.pl3   1  LIG1       -0.3565
     41 H          -6.0990   11.5713   -0.9148 H       1  LIG1        0.1424
     42 H          -7.1125   11.6378    0.4273 H       1  LIG1        0.1424
@<TRIPOS>BOND
     1     6     1    1
     2    38    39    3
     3     5     1   ar
     4     5     4   ar
     5     1     2   ar
     6    27    28    3
     7    39    33    1
     8    28    23    1
     9    30    29    1
    10    41    40    1
    11     4    12    1
    12     4     3   ar
    13    16    12   ar
    14    16    15   ar
    15     2     8    1
    16     2     3   ar
    17    31    29    1
    18    12    13   ar
    19    23    24   ar
    20    23    22   ar
    21    29    24    1
    22    24    25   ar
    23    15    22    1
    24    15    14   ar
    25    22    26   ar
    26     8     7    3
    27     3     9    1
    28    33    34   ar
    29    33    32   ar
    30    13    14   ar
    31    13    18    1
    32    40    42    1
    33    40    34    1
    34    14    19    1
    35    25    26   ar
    36    25    32    1
    37    18    17    3
    38    34    35   ar
    39    32    36   ar
    40    21    19    1
    41    19    20    1
    42     9    11    1
    43     9    10    1
    44    35    36   ar
    45    35    37    1
