@<TRIPOS>MOLECULE
mol_data/opt/m06hf/geoms/mol2/5dh5dh-5dh.out
 32 34 0 0 0
SMALL
GASTEIGER

@<TRIPOS>ATOM
      1 C          -1.8938   -1.7243   -1.2655 C.ar    1  LIG1       -0.0045
      2 C          -0.8958   -1.8637   -0.3493 C.ar    1  LIG1        0.0800
      3 C          -0.3368   -0.6070    0.1043 C.ar    1  LIG1        0.0577
      4 C          -0.9621    0.4478   -0.5213 C.ar    1  LIG1        0.0491
      5 S          -2.1931   -0.0881   -1.6301 S.2     1  LIG1       -0.0929
      6 H          -2.4454   -2.5169   -1.7449 H       1  LIG1        0.0707
      7 N           0.0093   -4.0960    0.5885 N.1     1  LIG1       -0.1908
      8 C          -0.4156   -3.1230    0.1518 C.1     1  LIG1        0.1016
      9 N           0.6137   -0.5644    1.0898 N.pl3   1  LIG1       -0.3561
     10 H           1.0339   -1.4504    1.3338 H       1  LIG1        0.1424
     11 H           1.2596    0.2104    1.0958 H       1  LIG1        0.1424
     12 C          -0.7521    1.8751   -0.3042 C.ar    1  LIG1        0.0475
     13 C           0.4360    2.5574   -0.2357 C.ar    1  LIG1        0.0883
     14 C           0.3014    3.9788   -0.0096 C.ar    1  LIG1        0.0583
     15 C          -1.0252    4.3323    0.0584 C.ar    1  LIG1        0.0497
     16 S          -2.0757    2.9516   -0.1067 S.2     1  LIG1       -0.0839
     17 N           2.7577    1.4580   -0.5075 N.1     1  LIG1       -0.1908
     18 C           1.7185    1.9396   -0.4080 C.1     1  LIG1        0.1022
     19 N           1.3993    4.7793    0.1730 N.pl3   1  LIG1       -0.3561
     20 H           2.2851    4.3877   -0.1152 H       1  LIG1        0.1424
     21 H           1.3040    5.7616   -0.0366 H       1  LIG1        0.1424
     22 C          -1.5933    5.6525    0.3131 C.ar    1  LIG1        0.0469
     23 C          -1.2551    6.8525   -0.2632 C.ar    1  LIG1        0.0876
     24 C          -2.0141    7.9780    0.2284 C.ar    1  LIG1        0.0499
     25 C          -2.9253    7.5785    1.1588 C.ar    1  LIG1       -0.0018
     26 S          -2.8422    5.8844    1.4736 S.2     1  LIG1       -0.0929
     27 H          -3.6349    8.1949    1.6855 H       1  LIG1        0.0712
     28 N           0.5564    7.1246   -2.0857 N.1     1  LIG1       -0.1908
     29 C          -0.2611    6.9912   -1.2885 C.1     1  LIG1        0.1022
     30 N          -1.7577    9.2738   -0.2001 N.pl3   1  LIG1       -0.3565
     31 H          -1.3986    9.3481   -1.1429 H       1  LIG1        0.1424
     32 H          -2.4941    9.9392   -0.0127 H       1  LIG1        0.1424
@<TRIPOS>BOND
     1    28    29    3
     2     6     1    1
     3     5     1   ar
     4     5     4   ar
     5    29    23    1
     6     1     2   ar
     7    31    30    1
     8     4    12    1
     9     4     3   ar
    10    17    18    3
    11    18    13    1
    12     2     3   ar
    13     2     8    1
    14    12    13   ar
    15    12    16   ar
    16    23    24   ar
    17    23    22   ar
    18    13    14   ar
    19    30    32    1
    20    30    24    1
    21    20    19    1
    22    16    15   ar
    23    21    19    1
    24    14    15   ar
    25    14    19    1
    26    15    22    1
    27     3     9    1
    28     8     7    3
    29    24    25   ar
    30    22    26   ar
    31     9    11    1
    32     9    10    1
    33    25    26   ar
    34    25    27    1
