@<TRIPOS>MOLECULE
mol_data/opt/m06hf/geoms/mol2/5dh5dh5dh-5dh-.out
 42 45 0 0 0
SMALL
GASTEIGER

@<TRIPOS>ATOM
      1 C          -1.5662   -1.5990   -1.9371 C.ar    1  LIG1       -0.0045
      2 C          -0.9812   -1.8090   -0.7258 C.ar    1  LIG1        0.0800
      3 C          -0.5240   -0.5972   -0.0763 C.ar    1  LIG1        0.0577
      4 C          -0.7927    0.4990   -0.8662 C.ar    1  LIG1        0.0491
      5 S          -1.5769    0.0522   -2.3575 S.2     1  LIG1       -0.0929
      6 H          -1.9677   -2.3494   -2.5991 H       1  LIG1        0.0707
      7 N          -0.6547   -4.0920    0.4408 N.1     1  LIG1       -0.1908
      8 C          -0.8153   -3.0959   -0.1070 C.1     1  LIG1        0.1016
      9 N           0.0037   -0.6256    1.1858 N.pl3   1  LIG1       -0.3561
     10 H           0.2125   -1.5428    1.5551 H       1  LIG1        0.1424
     11 H           0.6684    0.0862    1.4470 H       1  LIG1        0.1424
     12 C          -0.5876    1.9070   -0.5495 C.ar    1  LIG1        0.0475
     13 C           0.5172    2.5064    0.0002 C.ar    1  LIG1        0.0883
     14 C           0.3903    3.9326    0.2056 C.ar    1  LIG1        0.0583
     15 C          -0.8328    4.3761   -0.2423 C.ar    1  LIG1        0.0497
     16 S          -1.8141    3.0718   -0.8535 S.2     1  LIG1       -0.0839
     17 N           2.6999    1.2749    0.6229 N.1     1  LIG1       -0.1908
     18 C           1.7285    1.8111    0.3218 C.1     1  LIG1        0.1022
     19 N           1.3720    4.6458    0.8372 N.pl3   1  LIG1       -0.3561
     20 H           2.2625    4.1813    0.9469 H       1  LIG1        0.1424
     21 H           1.4417    5.6342    0.6518 H       1  LIG1        0.1424
     22 C          -1.3856    5.7227   -0.1657 C.ar    1  LIG1        0.0475
     23 C          -0.7792    6.9145   -0.4749 C.ar    1  LIG1        0.0883
     24 C          -1.6071    8.0824   -0.2695 C.ar    1  LIG1        0.0583
     25 C          -2.8587    7.7171    0.1664 C.ar    1  LIG1        0.0497
     26 S          -2.9991    5.9899    0.3649 S.2     1  LIG1       -0.0839
     27 N           1.6336    7.1412   -1.3685 N.1     1  LIG1       -0.1908
     28 C           0.5541    7.0234   -0.9903 C.1     1  LIG1        0.1022
     29 N          -1.1055    9.3456   -0.4381 N.pl3   1  LIG1       -0.3561
     30 H          -0.2446    9.4193   -0.9613 H       1  LIG1        0.1424
     31 H          -1.7570   10.0955   -0.6100 H       1  LIG1        0.1424
     32 C          -3.9777    8.5816    0.5259 C.ar    1  LIG1        0.0469
     33 C          -4.4725    9.6679   -0.1543 C.ar    1  LIG1        0.0876
     34 C          -5.6002   10.3022    0.4869 C.ar    1  LIG1        0.0499
     35 C          -5.9354    9.6491    1.6344 C.ar    1  LIG1       -0.0018
     36 S          -4.8845    8.3218    1.9643 S.2     1  LIG1       -0.0929
     37 H          -6.7366    9.8891    2.3130 H       1  LIG1        0.0712
     38 N          -3.5642   10.5247   -2.4159 N.1     1  LIG1       -0.1908
     39 C          -3.9675   10.1224   -1.4174 C.1     1  LIG1        0.1022
     40 N          -6.1841   11.4506   -0.0296 N.pl3   1  LIG1       -0.3565
     41 H          -6.0835   11.5695   -1.0292 H       1  LIG1        0.1424
     42 H          -7.1225   11.6368    0.2931 H       1  LIG1        0.1424
@<TRIPOS>BOND
     1     6     1    1
     2    38    39    3
     3     5     1   ar
     4     5     4   ar
     5     1     2   ar
     6    39    33    1
     7    27    28    3
     8    41    40    1
     9    28    23    1
    10    30    29    1
    11     4    12    1
    12     4     3   ar
    13    16    12   ar
    14    16    15   ar
    15     2     8    1
    16     2     3   ar
    17    31    29    1
    18    12    13   ar
    19    23    24   ar
    20    23    22   ar
    21    29    24    1
    22    24    25   ar
    23    15    22    1
    24    15    14   ar
    25    22    26   ar
    26    33    34   ar
    27    33    32   ar
    28     8     7    3
    29     3     9    1
    30    40    42    1
    31    40    34    1
    32    13    14   ar
    33    13    18    1
    34    25    26   ar
    35    25    32    1
    36    14    19    1
    37    18    17    3
    38    34    35   ar
    39    32    36   ar
    40    21    19    1
    41    19    20    1
    42     9    11    1
    43     9    10    1
    44    35    36   ar
    45    35    37    1
