@<TRIPOS>MOLECULE
mol_data/opt/m06hf/geoms/mol2/5dh5dh-5dh-.out
 32 34 0 0 0
SMALL
GASTEIGER

@<TRIPOS>ATOM
      1 C          -1.8923   -1.7221   -1.2697 C.ar    1  LIG1       -0.0045
      2 C          -0.8960   -1.8629   -0.3518 C.ar    1  LIG1        0.0800
      3 C          -0.3376   -0.6070    0.1047 C.ar    1  LIG1        0.0577
      4 C          -0.9616    0.4488   -0.5207 C.ar    1  LIG1        0.0491
      5 S          -2.1905   -0.0853   -1.6326 S.2     1  LIG1       -0.0929
      6 H          -2.4431   -2.5139   -1.7513 H       1  LIG1        0.0707
      7 N           0.0069   -4.0967    0.5848 N.1     1  LIG1       -0.1908
      8 C          -0.4170   -3.1230    0.1486 C.1     1  LIG1        0.1016
      9 N           0.6110   -0.5659    1.0920 N.pl3   1  LIG1       -0.3561
     10 H           1.0307   -1.4524    1.3354 H       1  LIG1        0.1424
     11 H           1.2572    0.2086    1.1001 H       1  LIG1        0.1424
     12 C          -0.7517    1.8757   -0.3012 C.ar    1  LIG1        0.0475
     13 C           0.4363    2.5578   -0.2296 C.ar    1  LIG1        0.0883
     14 C           0.3015    3.9789   -0.0018 C.ar    1  LIG1        0.0583
     15 C          -1.0251    4.3325    0.0644 C.ar    1  LIG1        0.0497
     16 S          -2.0755    2.9523   -0.1046 S.2     1  LIG1       -0.0839
     17 N           2.7583    1.4582   -0.4985 N.1     1  LIG1       -0.1908
     18 C           1.7190    1.9400   -0.4003 C.1     1  LIG1        0.1022
     19 N           1.3993    4.7789    0.1838 N.pl3   1  LIG1       -0.3561
     20 H           2.2855    4.3873   -0.1030 H       1  LIG1        0.1424
     21 H           1.3047    5.7614   -0.0250 H       1  LIG1        0.1424
     22 C          -1.5935    5.6523    0.3199 C.ar    1  LIG1        0.0469
     23 C          -1.2540    6.8532   -0.2539 C.ar    1  LIG1        0.0876
     24 C          -2.0141    7.9780    0.2379 C.ar    1  LIG1        0.0499
     25 C          -2.9273    7.5772    1.1656 C.ar    1  LIG1       -0.0018
     26 S          -2.8449    5.8826    1.4781 S.2     1  LIG1       -0.0929
     27 H          -3.6380    8.1929    1.6918 H       1  LIG1        0.0712
     28 N           0.5614    7.1280   -2.0720 N.1     1  LIG1       -0.1908
     29 C          -0.2579    6.9935   -1.2767 C.1     1  LIG1        0.1022
     30 N          -1.7568    9.2744   -0.1882 N.pl3   1  LIG1       -0.3565
     31 H          -1.3953    9.3501   -1.1300 H       1  LIG1        0.1424
     32 H          -2.4939    9.9394   -0.0019 H       1  LIG1        0.1424
@<TRIPOS>BOND
     1    28    29    3
     2     6     1    1
     3     5     1   ar
     4     5     4   ar
     5    29    23    1
     6     1     2   ar
     7    31    30    1
     8     4    12    1
     9     4     3   ar
    10    17    18    3
    11    18    13    1
    12     2     3   ar
    13     2     8    1
    14    12    13   ar
    15    12    16   ar
    16    23    24   ar
    17    23    22   ar
    18    13    14   ar
    19    30    32    1
    20    30    24    1
    21    16    15   ar
    22    20    19    1
    23    21    19    1
    24    14    15   ar
    25    14    19    1
    26    15    22    1
    27     3     9    1
    28     8     7    3
    29    24    25   ar
    30    22    26   ar
    31     9    11    1
    32     9    10    1
    33    25    26   ar
    34    25    27    1
