@<TRIPOS>MOLECULE
mol_data/opt/m06hf/geoms/mol2/5dh5dh5dh-.out
 32 34 0 0 0
SMALL
GASTEIGER

@<TRIPOS>ATOM
      1 C          -1.8787   -1.7256   -1.2754 C.ar    1  LIG1       -0.0045
      2 C          -0.8916   -1.8637   -0.3472 C.ar    1  LIG1        0.0800
      3 C          -0.3382   -0.6063    0.1115 C.ar    1  LIG1        0.0577
      4 C          -0.9562    0.4475   -0.5230 C.ar    1  LIG1        0.0491
      5 S          -2.1737   -0.0900   -1.6457 S.2     1  LIG1       -0.0929
      6 H          -2.4244   -2.5189   -1.7604 H       1  LIG1        0.0707
      7 N           0.0026   -4.0947    0.6042 N.1     1  LIG1       -0.1908
      8 C          -0.4172   -3.1223    0.1612 C.1     1  LIG1        0.1016
      9 N           0.6005   -0.5624    1.1081 N.pl3   1  LIG1       -0.3561
     10 H           1.0179   -1.4480    1.3582 H       1  LIG1        0.1424
     11 H           1.2461    0.2126    1.1209 H       1  LIG1        0.1424
     12 C          -0.7490    1.8752   -0.3052 C.ar    1  LIG1        0.0475
     13 C           0.4381    2.5578   -0.2234 C.ar    1  LIG1        0.0883
     14 C           0.3006    3.9794   -0.0007 C.ar    1  LIG1        0.0583
     15 C          -1.0268    4.3327    0.0510 C.ar    1  LIG1        0.0497
     16 S          -2.0750    2.9517   -0.1248 S.2     1  LIG1       -0.0839
     17 N           2.7631    1.4583   -0.4660 N.1     1  LIG1       -0.1908
     18 C           1.7227    1.9399   -0.3795 C.1     1  LIG1        0.1022
     19 N           1.3962    4.7803    0.1939 N.pl3   1  LIG1       -0.3561
     20 H           2.2854    4.3885   -0.0832 H       1  LIG1        0.1424
     21 H           1.3033    5.7623   -0.0180 H       1  LIG1        0.1424
     22 C          -1.5980    5.6532    0.2972 C.ar    1  LIG1        0.0469
     23 C          -1.2531    6.8525   -0.2766 C.ar    1  LIG1        0.0876
     24 C          -2.0181    7.9785    0.2045 C.ar    1  LIG1        0.0499
     25 C          -2.9403    7.5801    1.1245 C.ar    1  LIG1       -0.0018
     26 S          -2.8607    5.8864    1.4424 S.2     1  LIG1       -0.0929
     27 H          -3.6562    8.1971    1.6419 H       1  LIG1        0.0712
     28 N           0.5799    7.1226   -2.0777 N.1     1  LIG1       -0.1908
     29 C          -0.2470    6.9901   -1.2901 C.1     1  LIG1        0.1022
     30 N          -1.7568    9.2738   -0.2226 N.pl3   1  LIG1       -0.3565
     31 H          -1.3865    9.3470   -1.1611 H       1  LIG1        0.1424
     32 H          -2.4955    9.9393   -0.0449 H       1  LIG1        0.1424
@<TRIPOS>BOND
     1    28    29    3
     2     6     1    1
     3     5     1   ar
     4     5     4   ar
     5    29    23    1
     6     1     2   ar
     7    31    30    1
     8     4    12    1
     9     4     3   ar
    10    17    18    3
    11    18    13    1
    12     2     3   ar
    13     2     8    1
    14    12    13   ar
    15    12    16   ar
    16    23    24   ar
    17    23    22   ar
    18    13    14   ar
    19    30    32    1
    20    30    24    1
    21    16    15   ar
    22    20    19    1
    23    21    19    1
    24    14    15   ar
    25    14    19    1
    26    15    22    1
    27     3     9    1
    28     8     7    3
    29    24    25   ar
    30    22    26   ar
    31     9    11    1
    32     9    10    1
    33    25    26   ar
    34    25    27    1
