@<TRIPOS>MOLECULE
mol_data/opt/m06hf/geoms/mol2/5dh5dh5dh-5dh.out
 42 45 0 0 0
SMALL
GASTEIGER

@<TRIPOS>ATOM
      1 C          -1.5707   -1.5973   -1.9383 C.ar    1  LIG1       -0.0045
      2 C          -0.9838   -1.8084   -0.7281 C.ar    1  LIG1        0.0800
      3 C          -0.5253   -0.5972   -0.0785 C.ar    1  LIG1        0.0577
      4 C          -0.7950    0.4997   -0.8671 C.ar    1  LIG1        0.0491
      5 S          -1.5818    0.0542   -2.3574 S.2     1  LIG1       -0.0929
      6 H          -1.9734   -2.3471   -2.6003 H       1  LIG1        0.0707
      7 N          -0.6558   -4.0924    0.4361 N.1     1  LIG1       -0.1908
      8 C          -0.8171   -3.0958   -0.1107 C.1     1  LIG1        0.1016
      9 N           0.0046   -0.6267    1.1828 N.pl3   1  LIG1       -0.3561
     10 H           0.2138   -1.5442    1.5511 H       1  LIG1        0.1424
     11 H           0.6698    0.0848    1.4435 H       1  LIG1        0.1424
     12 C          -0.5891    1.9074   -0.5496 C.ar    1  LIG1        0.0475
     13 C           0.5168    2.5062   -0.0013 C.ar    1  LIG1        0.0883
     14 C           0.3905    3.9322    0.2054 C.ar    1  LIG1        0.0583
     15 C          -0.8332    4.3763   -0.2401 C.ar    1  LIG1        0.0497
     16 S          -1.8158    3.0727   -0.8507 S.2     1  LIG1       -0.0839
     17 N           2.7003    1.2737    0.6168 N.1     1  LIG1       -0.1908
     18 C           1.7285    1.8103    0.3177 C.1     1  LIG1        0.1022
     19 N           1.3735    4.6447    0.8359 N.pl3   1  LIG1       -0.3561
     20 H           2.2640    4.1799    0.9439 H       1  LIG1        0.1424
     21 H           1.4431    5.6332    0.6511 H       1  LIG1        0.1424
     22 C          -1.3856    5.7230   -0.1615 C.ar    1  LIG1        0.0475
     23 C          -0.7795    6.9149   -0.4708 C.ar    1  LIG1        0.0883
     24 C          -1.6068    8.0828   -0.2632 C.ar    1  LIG1        0.0583
     25 C          -2.8577    7.7174    0.1745 C.ar    1  LIG1        0.0497
     26 S          -2.9982    5.9901    0.3719 S.2     1  LIG1       -0.0839
     27 N           1.6319    7.1417   -1.3682 N.1     1  LIG1       -0.1908
     28 C           0.5530    7.0239   -0.9883 C.1     1  LIG1        0.1022
     29 N          -1.1052    9.3460   -0.4316 N.pl3   1  LIG1       -0.3561
     30 H          -0.2451    9.4199   -0.9562 H       1  LIG1        0.1424
     31 H          -1.7568   10.0962   -0.6019 H       1  LIG1        0.1424
     32 C          -3.9759    8.5819    0.5364 C.ar    1  LIG1        0.0469
     33 C          -4.4717    9.6687   -0.1421 C.ar    1  LIG1        0.0876
     34 C          -5.5982   10.3029    0.5014 C.ar    1  LIG1        0.0499
     35 C          -5.9316    9.6490    1.6490 C.ar    1  LIG1       -0.0018
     36 S          -4.8804    8.3213    1.9761 S.2     1  LIG1       -0.0929
     37 H          -6.7317    9.8887    2.3290 H       1  LIG1        0.0712
     38 N          -3.5669   10.5270   -2.4046 N.1     1  LIG1       -0.1908
     39 C          -3.9687   10.1241   -1.4057 C.1     1  LIG1        0.1022
     40 N          -6.1827   11.4517   -0.0133 N.pl3   1  LIG1       -0.3565
     41 H          -6.0837   11.5714   -1.0130 H       1  LIG1        0.1424
     42 H          -7.1205   11.6378    0.3111 H       1  LIG1        0.1424
@<TRIPOS>BOND
     1     6     1    1
     2    38    39    3
     3     5     1   ar
     4     5     4   ar
     5     1     2   ar
     6    39    33    1
     7    27    28    3
     8    41    40    1
     9    28    23    1
    10    30    29    1
    11     4    12    1
    12     4     3   ar
    13    16    12   ar
    14    16    15   ar
    15     2     8    1
    16     2     3   ar
    17    31    29    1
    18    12    13   ar
    19    23    24   ar
    20    23    22   ar
    21    29    24    1
    22    24    25   ar
    23    15    22    1
    24    15    14   ar
    25    22    26   ar
    26    33    34   ar
    27    33    32   ar
    28     8     7    3
    29     3     9    1
    30    40    42    1
    31    40    34    1
    32    13    14   ar
    33    13    18    1
    34    25    26   ar
    35    25    32    1
    36    14    19    1
    37    18    17    3
    38    34    35   ar
    39    32    36   ar
    40    21    19    1
    41    19    20    1
    42     9    11    1
    43     9    10    1
    44    35    36   ar
    45    35    37    1
