@<TRIPOS>MOLECULE
mol_data/opt/m06hf/geoms/mol2/5dh5dh-5dh-5dh.out
 42 45 0 0 0
SMALL
GASTEIGER

@<TRIPOS>ATOM
      1 C          -1.5879   -1.5924   -1.9364 C.ar    1  LIG1       -0.0045
      2 C          -0.9897   -1.8066   -0.7324 C.ar    1  LIG1        0.0800
      3 C          -0.5252   -0.5971   -0.0838 C.ar    1  LIG1        0.0577
      4 C          -0.8023    0.5018   -0.8670 C.ar    1  LIG1        0.0491
      5 S          -1.6030    0.0602   -2.3511 S.2     1  LIG1       -0.0929
      6 H          -1.9968   -2.3404   -2.5966 H       1  LIG1        0.0707
      7 N          -0.6508   -4.0936    0.4228 N.1     1  LIG1       -0.1908
      8 C          -0.8173   -3.0956   -0.1199 C.1     1  LIG1        0.1016
      9 N           0.0164   -0.6299    1.1723 N.pl3   1  LIG1       -0.3561
     10 H           0.2291   -1.5484    1.5362 H       1  LIG1        0.1424
     11 H           0.6839    0.0810    1.4287 H       1  LIG1        0.1424
     12 C          -0.5935    1.9087   -0.5478 C.ar    1  LIG1        0.0475
     13 C           0.5174    2.5061   -0.0083 C.ar    1  LIG1        0.0883
     14 C           0.3931    3.9316    0.2033 C.ar    1  LIG1        0.0583
     15 C          -0.8348    4.3768   -0.2295 C.ar    1  LIG1        0.0497
     16 S          -1.8230    3.0748   -0.8343 S.2     1  LIG1       -0.0839
     17 N           2.7066    1.2721    0.5861 N.1     1  LIG1       -0.1908
     18 C           1.7321    1.8095    0.2976 C.1     1  LIG1        0.1022
     19 N           1.3819    4.6425    0.8264 N.pl3   1  LIG1       -0.3561
     20 H           2.2734    4.1774    0.9249 H       1  LIG1        0.1424
     21 H           1.4498    5.6314    0.6435 H       1  LIG1        0.1424
     22 C          -1.3864    5.7232   -0.1423 C.ar    1  LIG1        0.0475
     23 C          -0.7833    6.9160   -0.4541 C.ar    1  LIG1        0.0883
     24 C          -1.6086    8.0833   -0.2357 C.ar    1  LIG1        0.0583
     25 C          -2.8554    7.7167    0.2127 C.ar    1  LIG1        0.0497
     26 S          -2.9940    5.9889    0.4069 S.2     1  LIG1       -0.0839
     27 N           1.6196    7.1453   -1.3735 N.1     1  LIG1       -0.1908
     28 C           0.5443    7.0264   -0.9837 C.1     1  LIG1        0.1022
     29 N          -1.1087    9.3470   -0.4056 N.pl3   1  LIG1       -0.3561
     30 H          -0.2536    9.4223   -0.9379 H       1  LIG1        0.1424
     31 H          -1.7619   10.0975   -0.5677 H       1  LIG1        0.1424
     32 C          -3.9703    8.5802    0.5873 C.ar    1  LIG1        0.0469
     33 C          -4.4724    9.6688   -0.0838 C.ar    1  LIG1        0.0876
     34 C          -5.5928   10.3011    0.5719 C.ar    1  LIG1        0.0499
     35 C          -5.9155    9.6443    1.7209 C.ar    1  LIG1       -0.0018
     36 S          -4.8613    8.3157    2.0347 S.2     1  LIG1       -0.0929
     37 H          -6.7091    9.8821    2.4090 H       1  LIG1        0.0712
     38 N          -3.5888   10.5329   -2.3524 N.1     1  LIG1       -0.1908
     39 C          -3.9812   10.1274   -1.3508 C.1     1  LIG1        0.1022
     40 N          -6.1822   11.4513    0.0656 N.pl3   1  LIG1       -0.3565
     41 H          -6.0925   11.5736   -0.9346 H       1  LIG1        0.1424
     42 H          -7.1169   11.6365    0.3993 H       1  LIG1        0.1424
@<TRIPOS>BOND
     1     6     1    1
     2    38    39    3
     3     5     1   ar
     4     5     4   ar
     5     1     2   ar
     6    27    28    3
     7    39    33    1
     8    28    23    1
     9    30    29    1
    10    41    40    1
    11     4    12    1
    12     4     3   ar
    13    16    12   ar
    14    16    15   ar
    15     2     8    1
    16     2     3   ar
    17    31    29    1
    18    12    13   ar
    19    23    24   ar
    20    23    22   ar
    21    29    24    1
    22    24    25   ar
    23    15    22    1
    24    15    14   ar
    25    22    26   ar
    26     8     7    3
    27     3     9    1
    28    33    34   ar
    29    33    32   ar
    30    13    14   ar
    31    13    18    1
    32    40    42    1
    33    40    34    1
    34    14    19    1
    35    25    26   ar
    36    25    32    1
    37    18    17    3
    38    34    35   ar
    39    32    36   ar
    40    21    19    1
    41    19    20    1
    42     9    11    1
    43     9    10    1
    44    35    36   ar
    45    35    37    1
