@<TRIPOS>MOLECULE
mol_data/opt/m06hf/geoms/mol2/5dh5dh-.out
 22 23 0 0 0
SMALL
GASTEIGER

@<TRIPOS>ATOM
      1 C          -2.0303   -1.7644    0.6298 C.ar    1  LIG1       -0.0045
      2 C          -0.8056   -1.8213    0.0364 C.ar    1  LIG1        0.0800
      3 C          -0.2408   -0.5234   -0.2700 C.ar    1  LIG1        0.0577
      4 C          -1.0966    0.4776    0.1281 C.ar    1  LIG1        0.0491
      5 S          -2.5421   -0.1559    0.8615 S.2     1  LIG1       -0.0929
      6 H          -2.6314   -2.5993    0.9523 H       1  LIG1        0.0707
      7 N           0.4959   -3.9773   -0.5496 N.1     1  LIG1       -0.1908
      8 C          -0.1064   -3.0383   -0.2774 C.1     1  LIG1        0.1016
      9 N           0.9477   -0.4016   -0.9477 N.pl3   1  LIG1       -0.3561
     10 H           1.4719   -1.2594   -1.0542 H       1  LIG1        0.1424
     11 H           1.5253    0.3991   -0.7382 H       1  LIG1        0.1424
     12 C          -0.9554    1.9190   -0.0604 C.ar    1  LIG1        0.0469
     13 C           0.1431    2.7088    0.1733 C.ar    1  LIG1        0.0876
     14 C          -0.0541    4.1043   -0.1417 C.ar    1  LIG1        0.0499
     15 C          -1.3201    4.3239   -0.5933 C.ar    1  LIG1       -0.0018
     16 S          -2.2516    2.8731   -0.6647 S.2     1  LIG1       -0.0929
     17 H          -1.7584    5.2662   -0.8761 H       1  LIG1        0.0712
     18 N           2.3931    1.8199    1.0791 N.1     1  LIG1       -0.1908
     19 C           1.3803    2.2135    0.7032 C.1     1  LIG1        0.1022
     20 N           0.9336    5.0518    0.0911 N.pl3   1  LIG1       -0.3565
     21 H           1.8809    4.6996    0.0546 H       1  LIG1        0.1424
     22 H           0.8204    5.9222   -0.4075 H       1  LIG1        0.1424
@<TRIPOS>BOND
     1    10     9    1
     2     9    11    1
     3     9     3    1
     4    17    15    1
     5    16    15   ar
     6    16    12   ar
     7    15    14   ar
     8     7     8    3
     9    22    20    1
    10     8     2    1
    11     3     2   ar
    12     3     4   ar
    13    14    20    1
    14    14    13   ar
    15    12     4    1
    16    12    13   ar
    17     2     1   ar
    18    21    20    1
    19     4     5   ar
    20    13    19    1
    21     1     5   ar
    22     1     6    1
    23    19    18    3
