@<TRIPOS>MOLECULE
mol_data/opt/m06hf/geoms/mol2/5dh5dh.out
 22 23 0 0 0
SMALL
GASTEIGER

@<TRIPOS>ATOM
      1 C          -2.0354   -1.7653    0.6184 C.ar    1  LIG1       -0.0045
      2 C          -0.8060   -1.8212    0.0346 C.ar    1  LIG1        0.0800
      3 C          -0.2389   -0.5228   -0.2654 C.ar    1  LIG1        0.0577
      4 C          -1.0979    0.4776    0.1273 C.ar    1  LIG1        0.0491
      5 S          -2.5491   -0.1571    0.8484 S.2     1  LIG1       -0.0929
      6 H          -2.6390   -2.6006    0.9349 H       1  LIG1        0.0707
      7 N           0.5002   -3.9762   -0.5443 N.1     1  LIG1       -0.1908
      8 C          -0.1043   -3.0377   -0.2754 C.1     1  LIG1        0.1016
      9 N           0.9549   -0.4000   -0.9336 N.pl3   1  LIG1       -0.3561
     10 H           1.4800   -1.2576   -1.0371 H       1  LIG1        0.1424
     11 H           1.5307    0.4005   -0.7183 H       1  LIG1        0.1424
     12 C          -0.9553    1.9192   -0.0580 C.ar    1  LIG1        0.0469
     13 C           0.1413    2.7088    0.1855 C.ar    1  LIG1        0.0876
     14 C          -0.0536    4.1047   -0.1289 C.ar    1  LIG1        0.0499
     15 C          -1.3159    4.3249   -0.5903 C.ar    1  LIG1       -0.0018
     16 S          -2.2467    2.8741   -0.6711 S.2     1  LIG1       -0.0929
     17 H          -1.7520    5.2675   -0.8751 H       1  LIG1        0.0712
     18 N           2.3841    1.8186    1.1079 N.1     1  LIG1       -0.1908
     19 C           1.3742    2.2127    0.7246 C.1     1  LIG1        0.1022
     20 N           0.9322    5.0519    0.1131 N.pl3   1  LIG1       -0.3565
     21 H           1.8799    4.6998    0.0836 H       1  LIG1        0.1424
     22 H           0.8230    5.9230   -0.3852 H       1  LIG1        0.1424
@<TRIPOS>BOND
     1    10     9    1
     2     9    11    1
     3     9     3    1
     4    17    15    1
     5    16    15   ar
     6    16    12   ar
     7    15    14   ar
     8     7     8    3
     9    22    20    1
    10     8     2    1
    11     3     2   ar
    12     3     4   ar
    13    14    20    1
    14    14    13   ar
    15    12     4    1
    16    12    13   ar
    17     2     1   ar
    18    21    20    1
    19     4     5   ar
    20    13    19    1
    21     1     5   ar
    22     1     6    1
    23    19    18    3
