@<TRIPOS>MOLECULE
mol_data/opt/m06hf/geoms/mol2/5di.out
 13 13 0 0 0
SMALL
GASTEIGER

@<TRIPOS>ATOM
      1 C          -2.1634   -1.7271   -0.0168 C.ar    1  LIG1       -0.0067
      2 C          -0.7997   -1.6866   -0.0362 C.ar    1  LIG1        0.0617
      3 C          -0.2545   -0.3520    0.0236 C.ar    1  LIG1       -0.0261
      4 C          -1.2552    0.5649    0.0863 C.ar    1  LIG1       -0.0202
      5 S          -2.8209   -0.1520    0.0742 S.2     1  LIG1       -0.1035
      6 H          -2.7924   -2.6017   -0.0517 H       1  LIG1        0.0706
      7 H          -1.1536    1.6373    0.1396 H       1  LIG1        0.0696
      8 N           0.7102   -3.7867   -0.1676 N.1     1  LIG1       -0.1908
      9 C           0.0279   -2.8651   -0.1096 C.1     1  LIG1        0.0999
     10 C           1.2274   -0.0595    0.0153 C.3     1  LIG1       -0.0380
     11 H           1.3985    1.0142    0.0671 H       1  LIG1        0.0278
     12 H           1.6802   -0.4500   -0.8970 H       1  LIG1        0.0278
     13 H           1.7078   -0.5396    0.8687 H       1  LIG1        0.0278
@<TRIPOS>BOND
     1    12    10    1
     2     8     9    3
     3     9     2    1
     4     6     1    1
     5     2     1   ar
     6     2     3   ar
     7     1     5   ar
     8    10     3    1
     9    10    11    1
    10    10    13    1
    11     3     4   ar
    12     5     4   ar
    13     4     7    1
