@<TRIPOS>MOLECULE
mol_data/opt/m06hf/geoms/mol2/5di5di-5di-5di.out
 46 49 0 0 0
SMALL
GASTEIGER

@<TRIPOS>ATOM
      1 C          -1.1387   -1.5501   -2.2710 C.ar    1  LIG1       -0.0061
      2 C          -0.7340   -1.7798   -0.9887 C.ar    1  LIG1        0.0623
      3 C          -0.4915   -0.5830   -0.2239 C.ar    1  LIG1       -0.0178
      4 C          -0.7272    0.5230   -0.9921 C.ar    1  LIG1        0.0313
      5 S          -1.2329    0.1216   -2.6030 S.2     1  LIG1       -0.0945
      6 H          -1.3802   -2.2856   -3.0213 H       1  LIG1        0.0706
      7 N          -0.4574   -4.1434    0.0308 N.1     1  LIG1       -0.1908
      8 C          -0.5795   -3.1016   -0.4344 C.1     1  LIG1        0.1000
      9 C          -0.0652   -0.6080    1.2239 C.3     1  LIG1       -0.0374
     10 H          -0.2515    0.3589    1.6892 H       1  LIG1        0.0278
     11 H           1.0005   -0.8321    1.2928 H       1  LIG1        0.0278
     12 H          -0.6252   -1.3790    1.7532 H       1  LIG1        0.0278
     13 C          -0.5750    1.9277   -0.5946 C.ar    1  LIG1        0.0444
     14 C           0.5292    2.5190   -0.0355 C.ar    1  LIG1        0.0705
     15 C           0.3723    3.9172    0.2628 C.ar    1  LIG1       -0.0172
     16 C          -0.8717    4.3440   -0.1117 C.ar    1  LIG1        0.0319
     17 S          -1.8395    3.0739   -0.7874 S.2     1  LIG1       -0.0856
     18 N           2.7309    1.2436    0.4358 N.1     1  LIG1       -0.1908
     19 C           1.7523    1.8017    0.2153 C.1     1  LIG1        0.1006
     20 C           1.4577    4.7420    0.9106 C.3     1  LIG1       -0.0374
     21 H           1.0386    5.6599    1.3208 H       1  LIG1        0.0278
     22 H           2.2181    5.0006    0.1718 H       1  LIG1        0.0278
     23 H           1.9223    4.1663    1.7115 H       1  LIG1        0.0278
     24 C          -1.4113    5.7050   -0.0089 C.ar    1  LIG1        0.0444
     25 C          -0.8401    6.8639   -0.4692 C.ar    1  LIG1        0.0705
     26 C          -1.6022    8.0541   -0.2016 C.ar    1  LIG1       -0.0172
     27 C          -2.7630    7.7370    0.4484 C.ar    1  LIG1        0.0319
     28 S          -2.9170    6.0377    0.7506 S.2     1  LIG1       -0.0856
     29 N           1.4243    6.9169   -1.7220 N.1     1  LIG1       -0.1908
     30 C           0.4162    6.8840   -1.1734 C.1     1  LIG1        0.1006
     31 C          -1.1293    9.4337   -0.5899 C.3     1  LIG1       -0.0374
     32 H          -1.6553   10.1882   -0.0063 H       1  LIG1        0.0278
     33 H          -1.3230    9.6099   -1.6491 H       1  LIG1        0.0278
     34 H          -0.0581    9.5150   -0.4060 H       1  LIG1        0.0278
     35 C          -3.8231    8.6540    0.8831 C.ar    1  LIG1        0.0438
     36 C          -4.4711    9.6012    0.1319 C.ar    1  LIG1        0.0699
     37 C          -5.4710   10.3449    0.8542 C.ar    1  LIG1       -0.0255
     38 C          -5.5467    9.9128    2.1405 C.ar    1  LIG1       -0.0196
     39 S          -4.4307    8.6491    2.4928 S.2     1  LIG1       -0.0945
     40 H          -6.2072   10.2761    2.9120 H       1  LIG1        0.0696
     41 N          -4.0099    9.9886   -2.3849 N.1     1  LIG1       -0.1908
     42 C          -4.2077    9.8049   -1.2689 C.1     1  LIG1        0.1006
     43 C          -6.3056   11.4365    0.2271 C.3     1  LIG1       -0.0380
     44 H          -7.0063   11.8378    0.9568 H       1  LIG1        0.0278
     45 H          -6.8615   11.0398   -0.6230 H       1  LIG1        0.0278
     46 H          -5.6612   12.2407   -0.1299 H       1  LIG1        0.0278
@<TRIPOS>BOND
     1     6     1    1
     2     5     1   ar
     3     5     4   ar
     4    41    42    3
     5     1     2   ar
     6    29    30    3
     7    33    31    1
     8    42    36    1
     9    30    25    1
    10     4    13    1
    11     4     3   ar
    12     2     8    1
    13     2     3   ar
    14    17    13   ar
    15    17    16   ar
    16    45    43    1
    17    13    14   ar
    18    31    34    1
    19    31    26    1
    20    31    32    1
    21    25    26   ar
    22    25    24   ar
    23     8     7    3
    24     3     9    1
    25    26    27   ar
    26    46    43    1
    27    16    24    1
    28    16    15   ar
    29    14    19    1
    30    14    15   ar
    31    24    28   ar
    32    36    37   ar
    33    36    35   ar
    34    22    20    1
    35    19    18    3
    36    43    37    1
    37    43    44    1
    38    15    20    1
    39    27    28   ar
    40    27    35    1
    41    37    38   ar
    42    35    39   ar
    43    20    21    1
    44    20    23    1
    45     9    11    1
    46     9    10    1
    47     9    12    1
    48    38    39   ar
    49    38    40    1
