@<TRIPOS>MOLECULE
mol_data/opt/m06hf/geoms/mol2/5di5di-5di5di-.out
 46 49 0 0 0
SMALL
GASTEIGER

@<TRIPOS>ATOM
      1 C          -1.1548   -1.5584   -2.2494 C.ar    1  LIG1       -0.0061
      2 C          -0.7401   -1.7833   -0.9694 C.ar    1  LIG1        0.0623
      3 C          -0.4920   -0.5836   -0.2110 C.ar    1  LIG1       -0.0178
      4 C          -0.7339    0.5195   -0.9813 C.ar    1  LIG1        0.0313
      5 S          -1.2520    0.1120   -2.5868 S.2     1  LIG1       -0.0945
      6 H          -1.4019   -2.2968   -2.9951 H       1  LIG1        0.0706
      7 N          -0.4550   -4.1431    0.0566 N.1     1  LIG1       -0.1908
      8 C          -0.5810   -3.1030   -0.4115 C.1     1  LIG1        0.1000
      9 C          -0.0544   -0.6033    1.2336 C.3     1  LIG1       -0.0374
     10 H          -0.2377    0.3652    1.6969 H       1  LIG1        0.0278
     11 H           1.0118   -0.8265    1.2951 H       1  LIG1        0.0278
     12 H          -0.6099   -1.3727    1.7700 H       1  LIG1        0.0278
     13 C          -0.5790    1.9257   -0.5903 C.ar    1  LIG1        0.0444
     14 C           0.5294    2.5193   -0.0419 C.ar    1  LIG1        0.0705
     15 C           0.3745    3.9185    0.2523 C.ar    1  LIG1       -0.0172
     16 C          -0.8725    4.3437   -0.1142 C.ar    1  LIG1        0.0319
     17 S          -1.8452    3.0709   -0.7776 S.2     1  LIG1       -0.0856
     18 N           2.7350    1.2463    0.4170 N.1     1  LIG1       -0.1908
     19 C           1.7546    1.8033    0.2020 C.1     1  LIG1        0.1006
     20 C           1.4647    4.7461    0.8885 C.3     1  LIG1       -0.0374
     21 H           1.0485    5.6654    1.2985 H       1  LIG1        0.0278
     22 H           2.2193    5.0020    0.1429 H       1  LIG1        0.0278
     23 H           1.9355    4.1734    1.6880 H       1  LIG1        0.0278
     24 C          -1.4116    5.7050   -0.0123 C.ar    1  LIG1        0.0444
     25 C          -0.8443    6.8623   -0.4814 C.ar    1  LIG1        0.0705
     26 C          -1.6046    8.0533   -0.2124 C.ar    1  LIG1       -0.0172
     27 C          -2.7602    7.7384    0.4477 C.ar    1  LIG1        0.0319
     28 S          -2.9114    6.0403    0.7576 S.2     1  LIG1       -0.0856
     29 N           1.4104    6.9109   -1.7519 N.1     1  LIG1       -0.1908
     30 C           0.4065    6.8799   -1.1954 C.1     1  LIG1        0.1006
     31 C          -1.1350    9.4315   -0.6096 C.3     1  LIG1       -0.0374
     32 H          -1.6566   10.1881   -0.0248 H       1  LIG1        0.0278
     33 H          -1.3369    9.6037   -1.6680 H       1  LIG1        0.0278
     34 H          -0.0624    9.5137   -0.4344 H       1  LIG1        0.0278
     35 C          -3.8170    8.6568    0.8873 C.ar    1  LIG1        0.0438
     36 C          -4.4710    9.6011    0.1376 C.ar    1  LIG1        0.0699
     37 C          -5.4655   10.3474    0.8648 C.ar    1  LIG1       -0.0255
     38 C          -5.5310    9.9201    2.1533 C.ar    1  LIG1       -0.0196
     39 S          -4.4121    8.6580    2.5016 S.2     1  LIG1       -0.0945
     40 H          -6.1856   10.2863    2.9285 H       1  LIG1        0.0696
     41 N          -4.0295    9.9791   -2.3842 N.1     1  LIG1       -0.1908
     42 C          -4.2186    9.7996   -1.2660 C.1     1  LIG1        0.1006
     43 C          -6.3051   11.4364    0.2401 C.3     1  LIG1       -0.0380
     44 H          -7.0002   11.8404    0.9737 H       1  LIG1        0.0278
     45 H          -6.8676   11.0365   -0.6042 H       1  LIG1        0.0278
     46 H          -5.6636   12.2394   -0.1250 H       1  LIG1        0.0278
@<TRIPOS>BOND
     1     6     1    1
     2     5     1   ar
     3     5     4   ar
     4    41    42    3
     5     1     2   ar
     6    29    30    3
     7    33    31    1
     8    42    36    1
     9    30    25    1
    10     4    13    1
    11     4     3   ar
    12     2     8    1
    13     2     3   ar
    14    17    13   ar
    15    17    16   ar
    16    31    34    1
    17    31    26    1
    18    31    32    1
    19    45    43    1
    20    13    14   ar
    21    25    26   ar
    22    25    24   ar
    23     8     7    3
    24    26    27   ar
    25     3     9    1
    26    46    43    1
    27    16    24    1
    28    16    15   ar
    29    14    19    1
    30    14    15   ar
    31    24    28   ar
    32    36    37   ar
    33    36    35   ar
    34    22    20    1
    35    19    18    3
    36    43    37    1
    37    43    44    1
    38    15    20    1
    39    27    28   ar
    40    27    35    1
    41    37    38   ar
    42    35    39   ar
    43    20    21    1
    44    20    23    1
    45     9    11    1
    46     9    10    1
    47     9    12    1
    48    38    39   ar
    49    38    40    1
