@<TRIPOS>MOLECULE
mol_data/opt/m06hf/geoms/mol2/5di5di-.out
 24 25 0 0 0
SMALL
GASTEIGER

@<TRIPOS>ATOM
      1 C          -2.0438   -1.7431   -0.7511 C.ar    1  LIG1       -0.0061
      2 C          -0.7851   -1.8165   -0.2307 C.ar    1  LIG1        0.0623
      3 C          -0.2324   -0.5440    0.1599 C.ar    1  LIG1       -0.0178
      4 C          -1.1231    0.4589   -0.1017 C.ar    1  LIG1        0.0313
      5 S          -2.5995   -0.1291   -0.8007 S.2     1  LIG1       -0.0945
      6 H          -2.6537   -2.5592   -1.1031 H       1  LIG1        0.0706
      7 N           0.5108   -4.0360    0.0857 N.1     1  LIG1       -0.1908
      8 C          -0.0723   -3.0586   -0.0629 C.1     1  LIG1        0.1000
      9 C           1.1304   -0.4043    0.7935 C.3     1  LIG1       -0.0374
     10 H           1.2126    0.5545    1.3039 H       1  LIG1        0.0278
     11 H           1.9056   -0.4633    0.0278 H       1  LIG1        0.0278
     12 H           1.2794   -1.2111    1.5116 H       1  LIG1        0.0278
     13 C          -0.9443    1.8967    0.1309 C.ar    1  LIG1        0.0438
     14 C           0.1037    2.6860   -0.2686 C.ar    1  LIG1        0.0699
     15 C          -0.0162    4.0682    0.1192 C.ar    1  LIG1       -0.0255
     16 C          -1.1764    4.2716    0.7966 C.ar    1  LIG1       -0.0196
     17 S          -2.1035    2.8336    0.9888 S.2     1  LIG1       -0.0945
     18 H          -1.5385    5.2032    1.2016 H       1  LIG1        0.0696
     19 N           2.1082    1.8007   -1.6462 N.1     1  LIG1       -0.1908
     20 C           1.2114    2.1836   -1.0395 C.1     1  LIG1        0.1006
     21 C           1.0192    5.1165   -0.2122 C.3     1  LIG1       -0.0380
     22 H           0.7076    6.0843    0.1762 H       1  LIG1        0.0278
     23 H           1.1469    5.1889   -1.2931 H       1  LIG1        0.0278
     24 H           1.9798    4.8467    0.2284 H       1  LIG1        0.0278
@<TRIPOS>BOND
     1    19    20    3
     2    23    21    1
     3     6     1    1
     4    20    14    1
     5     5     1   ar
     6     5     4   ar
     7     1     2   ar
     8    14    15   ar
     9    14    13   ar
    10     2     8    1
    11     2     3   ar
    12    21    15    1
    13    21    22    1
    14    21    24    1
    15     4    13    1
    16     4     3   ar
    17     8     7    3
    18    11     9    1
    19    15    16   ar
    20    13    17   ar
    21     3     9    1
    22     9    10    1
    23     9    12    1
    24    16    17   ar
    25    16    18    1
