@<TRIPOS>MOLECULE
mol_data/opt/m06hf/geoms/mol2/5di5di-5di-.out
 35 37 0 0 0
SMALL
GASTEIGER

@<TRIPOS>ATOM
      1 C          -1.7696   -1.6754   -1.4659 C.ar    1  LIG1       -0.0061
      2 C          -0.8148   -1.8366   -0.5047 C.ar    1  LIG1        0.0623
      3 C          -0.3405   -0.6025    0.0682 C.ar    1  LIG1       -0.0178
      4 C          -0.9737    0.4605   -0.5116 C.ar    1  LIG1        0.0313
      5 S          -2.1229   -0.0252   -1.7196 S.2     1  LIG1       -0.0945
      6 H          -2.2702   -2.4495   -2.0248 H       1  LIG1        0.0706
      7 N           0.0471   -4.1484    0.2818 N.1     1  LIG1       -0.1908
      8 C          -0.3375   -3.1286   -0.0780 C.1     1  LIG1        0.1000
      9 C           0.6885   -0.5539    1.1716 C.3     1  LIG1       -0.0374
     10 H           0.6672    0.4169    1.6652 H       1  LIG1        0.0278
     11 H           1.6849   -0.7172    0.7578 H       1  LIG1        0.0278
     12 H           0.4745   -1.3361    1.9003 H       1  LIG1        0.0278
     13 C          -0.7584    1.8856   -0.2362 C.ar    1  LIG1        0.0444
     14 C           0.4344    2.5620   -0.2354 C.ar    1  LIG1        0.0705
     15 C           0.3272    3.9635    0.0708 C.ar    1  LIG1       -0.0172
     16 C          -0.9804    4.3058    0.2756 C.ar    1  LIG1        0.0319
     17 S          -2.0550    2.9516    0.1274 S.2     1  LIG1       -0.0856
     18 N           2.6973    1.4245   -0.7693 N.1     1  LIG1       -0.1908
     19 C           1.6886    1.9234   -0.5409 C.1     1  LIG1        0.1006
     20 C           1.5257    4.8777    0.1527 C.3     1  LIG1       -0.0374
     21 H           1.2684    5.7854    0.6968 H       1  LIG1        0.0278
     22 H           1.8549    5.1494   -0.8514 H       1  LIG1        0.0278
     23 H           2.3390    4.3647    0.6665 H       1  LIG1        0.0278
     24 C          -1.5178    5.6400    0.5671 C.ar    1  LIG1        0.0438
     25 C          -1.2958    6.7970   -0.1351 C.ar    1  LIG1        0.0699
     26 C          -1.9756    7.9500    0.3963 C.ar    1  LIG1       -0.0255
     27 C          -2.7038    7.6075    1.4911 C.ar    1  LIG1       -0.0196
     28 S          -2.5698    5.9394    1.8948 S.2     1  LIG1       -0.0945
     29 H          -3.3201    8.2577    2.0916 H       1  LIG1        0.0696
     30 N           0.1597    6.8997   -2.2730 N.1     1  LIG1       -0.1908
     31 C          -0.4873    6.8438   -1.3259 C.1     1  LIG1        0.1006
     32 C          -1.8797    9.3255   -0.2195 C.3     1  LIG1       -0.0380
     33 H          -2.4927   10.0295    0.3401 H       1  LIG1        0.0278
     34 H          -2.2235    9.2952   -1.2543 H       1  LIG1        0.0278
     35 H          -0.8445    9.6683   -0.2115 H       1  LIG1        0.0278
@<TRIPOS>BOND
     1    30    31    3
     2     6     1    1
     3     5     1   ar
     4     5     4   ar
     5     1     2   ar
     6    31    25    1
     7    34    32    1
     8    22    20    1
     9    18    19    3
    10    19    14    1
    11     4    13    1
    12     4     3   ar
    13     2     8    1
    14     2     3   ar
    15    13    14   ar
    16    13    17   ar
    17    14    15   ar
    18    32    35    1
    19    32    33    1
    20    32    26    1
    21    25    26   ar
    22    25    24   ar
    23     8     7    3
    24     3     9    1
    25    15    20    1
    26    15    16   ar
    27    17    16   ar
    28    20    23    1
    29    20    21    1
    30    16    24    1
    31    26    27   ar
    32    24    28   ar
    33    11     9    1
    34     9    10    1
    35     9    12    1
    36    27    28   ar
    37    27    29    1
