@<TRIPOS>MOLECULE
mol_data/opt/m06hf/geoms/mol2/5di5di-5di.out
 35 37 0 0 0
SMALL
GASTEIGER

@<TRIPOS>ATOM
      1 C          -1.7677   -1.6739   -1.4784 C.ar    1  LIG1       -0.0061
      2 C          -0.8150   -1.8361   -0.5154 C.ar    1  LIG1        0.0623
      3 C          -0.3415   -0.6026    0.0595 C.ar    1  LIG1       -0.0178
      4 C          -0.9733    0.4611   -0.5207 C.ar    1  LIG1        0.0313
      5 S          -2.1200   -0.0234   -1.7316 S.2     1  LIG1       -0.0945
      6 H          -2.2673   -2.4474   -2.0391 H       1  LIG1        0.0706
      7 N           0.0447   -4.1487    0.2710 N.1     1  LIG1       -0.1908
      8 C          -0.3389   -3.1285   -0.0888 C.1     1  LIG1        0.1000
      9 C           0.6851   -0.5551    1.1651 C.3     1  LIG1       -0.0374
     10 H           0.6629    0.4152    1.6596 H       1  LIG1        0.0278
     11 H           1.6823   -0.7182    0.7533 H       1  LIG1        0.0278
     12 H           0.4695   -1.3380    1.8927 H       1  LIG1        0.0278
     13 C          -0.7582    1.8859   -0.2437 C.ar    1  LIG1        0.0444
     14 C           0.4347    2.5620   -0.2398 C.ar    1  LIG1        0.0705
     15 C           0.3273    3.9632    0.0674 C.ar    1  LIG1       -0.0172
     16 C          -0.9807    4.3057    0.2697 C.ar    1  LIG1        0.0319
     17 S          -2.0553    2.9519    0.1180 S.2     1  LIG1       -0.0856
     18 N           2.6985    1.4244   -0.7699 N.1     1  LIG1       -0.1908
     19 C           1.6895    1.9233   -0.5431 C.1     1  LIG1        0.1006
     20 C           1.5258    4.8771    0.1526 C.3     1  LIG1       -0.0374
     21 H           1.2675    5.7844    0.6970 H       1  LIG1        0.0278
     22 H           1.8572    5.1496   -0.8505 H       1  LIG1        0.0278
     23 H           2.3379    4.3635    0.6677 H       1  LIG1        0.0278
     24 C          -1.5184    5.6398    0.5612 C.ar    1  LIG1        0.0438
     25 C          -1.2946    6.7973   -0.1396 C.ar    1  LIG1        0.0699
     26 C          -1.9753    7.9500    0.3913 C.ar    1  LIG1       -0.0255
     27 C          -2.7058    7.6068    1.4843 C.ar    1  LIG1       -0.0196
     28 S          -2.5732    5.9383    1.8869 S.2     1  LIG1       -0.0945
     29 H          -3.3233    8.2567    2.0841 H       1  LIG1        0.0696
     30 N           0.1654    6.9014   -2.2743 N.1     1  LIG1       -0.1908
     31 C          -0.4836    6.8449   -1.3286 C.1     1  LIG1        0.1006
     32 C          -1.8778    9.3261   -0.2232 C.3     1  LIG1       -0.0380
     33 H          -2.4918   10.0297    0.3357 H       1  LIG1        0.0278
     34 H          -2.2194    9.2967   -1.2587 H       1  LIG1        0.0278
     35 H          -0.8425    9.6686   -0.2127 H       1  LIG1        0.0278
@<TRIPOS>BOND
     1    30    31    3
     2     6     1    1
     3     5     1   ar
     4     5     4   ar
     5     1     2   ar
     6    31    25    1
     7    34    32    1
     8    22    20    1
     9    18    19    3
    10    19    14    1
    11     4    13    1
    12     4     3   ar
    13     2     8    1
    14     2     3   ar
    15    13    14   ar
    16    13    17   ar
    17    14    15   ar
    18    32    35    1
    19    32    33    1
    20    32    26    1
    21    25    26   ar
    22    25    24   ar
    23     8     7    3
    24     3     9    1
    25    15    20    1
    26    15    16   ar
    27    17    16   ar
    28    20    23    1
    29    20    21    1
    30    16    24    1
    31    26    27   ar
    32    24    28   ar
    33    11     9    1
    34     9    10    1
    35     9    12    1
    36    27    28   ar
    37    27    29    1
