@<TRIPOS>MOLECULE
mol_data/opt/m06hf/geoms/mol2/5di5di5di-5di.out
 46 49 0 0 0
SMALL
GASTEIGER

@<TRIPOS>ATOM
      1 C          -1.1191   -1.5644   -2.2446 C.ar    1  LIG1       -0.0061
      2 C          -0.7227   -1.7854   -0.9583 C.ar    1  LIG1        0.0623
      3 C          -0.4861   -0.5835   -0.1997 C.ar    1  LIG1       -0.0178
      4 C          -0.7174    0.5173   -0.9766 C.ar    1  LIG1        0.0313
      5 S          -1.2121    0.1051   -2.5882 S.2     1  LIG1       -0.0945
      6 H          -1.3553   -2.3049   -2.9917 H       1  LIG1        0.0706
      7 N          -0.4514   -4.1421    0.0785 N.1     1  LIG1       -0.1908
      8 C          -0.5710   -3.1034   -0.3943 C.1     1  LIG1        0.1000
      9 C          -0.0694   -0.5989    1.2511 C.3     1  LIG1       -0.0374
     10 H          -0.2589    0.3711    1.7087 H       1  LIG1        0.0278
     11 H           0.9958   -0.8223    1.3286 H       1  LIG1        0.0278
     12 H          -0.6328   -1.3664    1.7817 H       1  LIG1        0.0278
     13 C          -0.5687    1.9247   -0.5873 C.ar    1  LIG1        0.0444
     14 C           0.5315    2.5203   -0.0248 C.ar    1  LIG1        0.0705
     15 C           0.3717    3.9203    0.2634 C.ar    1  LIG1       -0.0172
     16 C          -0.8701    4.3439   -0.1220 C.ar    1  LIG1        0.0319
     17 S          -1.8326    3.0688   -0.7960 S.2     1  LIG1       -0.0856
     18 N           2.7308    1.2496    0.4694 N.1     1  LIG1       -0.1908
     19 C           1.7533    1.8056    0.2387 C.1     1  LIG1        0.1006
     20 C           1.4523    4.7501    0.9130 C.3     1  LIG1       -0.0374
     21 H           1.0299    5.6702    1.3147 H       1  LIG1        0.0278
     22 H           2.2174    5.0045    0.1776 H       1  LIG1        0.0278
     23 H           1.9120    4.1797    1.7206 H       1  LIG1        0.0278
     24 C          -1.4113    5.7051   -0.0316 C.ar    1  LIG1        0.0444
     25 C          -0.8380    6.8615   -0.4956 C.ar    1  LIG1        0.0705
     26 C          -1.6027    8.0527   -0.2409 C.ar    1  LIG1       -0.0172
     27 C          -2.7675    7.7390    0.4035 C.ar    1  LIG1        0.0319
     28 S          -2.9222    6.0415    0.7158 S.2     1  LIG1       -0.0856
     29 N           1.4346    6.9079   -1.7339 N.1     1  LIG1       -0.1908
     30 C           0.4228    6.8779   -1.1918 C.1     1  LIG1        0.1006
     31 C          -1.1284    9.4301   -0.6351 C.3     1  LIG1       -0.0374
     32 H          -1.6586   10.1880   -0.0598 H       1  LIG1        0.0278
     33 H          -1.3154    9.5994   -1.6967 H       1  LIG1        0.0278
     34 H          -0.0584    9.5135   -0.4449 H       1  LIG1        0.0278
     35 C          -3.8312    8.6579    0.8252 C.ar    1  LIG1        0.0438
     36 C          -4.4749    9.5997    0.0637 C.ar    1  LIG1        0.0699
     37 C          -5.4801   10.3474    0.7746 C.ar    1  LIG1       -0.0255
     38 C          -5.5639    9.9235    2.0631 C.ar    1  LIG1       -0.0196
     39 S          -4.4496    8.6628    2.4309 S.2     1  LIG1       -0.0945
     40 H          -6.2297   10.2914    2.8279 H       1  LIG1        0.0696
     41 N          -3.9975    9.9713   -2.4525 N.1     1  LIG1       -0.1908
     42 C          -4.2024    9.7946   -1.3366 C.1     1  LIG1        0.1006
     43 C          -6.3111   11.4343    0.1350 C.3     1  LIG1       -0.0380
     44 H          -7.0170   11.8398    0.8575 H       1  LIG1        0.0278
     45 H          -6.8612   11.0319   -0.7162 H       1  LIG1        0.0278
     46 H          -5.6649   12.2366   -0.2229 H       1  LIG1        0.0278
@<TRIPOS>BOND
     1     6     1    1
     2     5     1   ar
     3     5     4   ar
     4    41    42    3
     5     1     2   ar
     6    29    30    3
     7    33    31    1
     8    42    36    1
     9    30    25    1
    10     4    13    1
    11     4     3   ar
    12     2     8    1
    13     2     3   ar
    14    17    13   ar
    15    17    16   ar
    16    45    43    1
    17    31    34    1
    18    31    26    1
    19    31    32    1
    20    13    14   ar
    21    25    26   ar
    22    25    24   ar
    23     8     7    3
    24    26    27   ar
    25    46    43    1
    26     3     9    1
    27    16    24    1
    28    16    15   ar
    29    24    28   ar
    30    14    19    1
    31    14    15   ar
    32    36    37   ar
    33    36    35   ar
    34    43    37    1
    35    43    44    1
    36    22    20    1
    37    19    18    3
    38    15    20    1
    39    27    28   ar
    40    27    35    1
    41    37    38   ar
    42    35    39   ar
    43    20    21    1
    44    20    23    1
    45     9    11    1
    46     9    10    1
    47     9    12    1
    48    38    39   ar
    49    38    40    1
