@<TRIPOS>MOLECULE
mol_data/opt/m06hf/geoms/mol2/5di5di-5di5di.out
 46 49 0 0 0
SMALL
GASTEIGER

@<TRIPOS>ATOM
      1 C          -1.1785   -1.5637   -2.2343 C.ar    1  LIG1       -0.0061
      2 C          -0.7604   -1.7872   -0.9552 C.ar    1  LIG1        0.0623
      3 C          -0.5069   -0.5867   -0.1998 C.ar    1  LIG1       -0.0178
      4 C          -0.7484    0.5155   -0.9715 C.ar    1  LIG1        0.0313
      5 S          -1.2725    0.1064   -2.5746 S.2     1  LIG1       -0.0945
      6 H          -1.4298   -2.3028   -2.9779 H       1  LIG1        0.0706
      7 N          -0.4780   -4.1457    0.0743 N.1     1  LIG1       -0.1908
      8 C          -0.6029   -3.1062   -0.3953 C.1     1  LIG1        0.1000
      9 C          -0.0649   -0.6048    1.2434 C.3     1  LIG1       -0.0374
     10 H          -0.2439    0.3652    1.7054 H       1  LIG1        0.0278
     11 H           1.0009   -0.8310    1.3020 H       1  LIG1        0.0278
     12 H          -0.6209   -1.3715    1.7830 H       1  LIG1        0.0278
     13 C          -0.5888    1.9221   -0.5836 C.ar    1  LIG1        0.0444
     14 C           0.5228    2.5138   -0.0397 C.ar    1  LIG1        0.0705
     15 C           0.3724    3.9140    0.2525 C.ar    1  LIG1       -0.0172
     16 C          -0.8747    4.3417   -0.1109 C.ar    1  LIG1        0.0319
     17 S          -1.8527    3.0701   -0.7690 S.2     1  LIG1       -0.0856
     18 N           2.7266    1.2360    0.4147 N.1     1  LIG1       -0.1908
     19 C           1.7470    1.7952    0.2017 C.1     1  LIG1        0.1006
     20 C           1.4666    4.7399    0.8838 C.3     1  LIG1       -0.0374
     21 H           1.0541    5.6610    1.2935 H       1  LIG1        0.0278
     22 H           2.2196    4.9926    0.1354 H       1  LIG1        0.0278
     23 H           1.9386    4.1675    1.6828 H       1  LIG1        0.0278
     24 C          -1.4101    5.7044   -0.0098 C.ar    1  LIG1        0.0444
     25 C          -0.8413    6.8595   -0.4827 C.ar    1  LIG1        0.0705
     26 C          -1.5978    8.0529   -0.2135 C.ar    1  LIG1       -0.0172
     27 C          -2.7521    7.7421    0.4509 C.ar    1  LIG1        0.0319
     28 S          -2.9066    6.0448    0.7642 S.2     1  LIG1       -0.0856
     29 N           1.4095    6.9002   -1.7603 N.1     1  LIG1       -0.1908
     30 C           0.4073    6.8727   -1.2006 C.1     1  LIG1        0.1006
     31 C          -1.1260    9.4292   -0.6145 C.3     1  LIG1       -0.0374
     32 H          -1.6439   10.1881   -0.0295 H       1  LIG1        0.0278
     33 H          -1.3308    9.6000   -1.6726 H       1  LIG1        0.0278
     34 H          -0.0527    9.5090   -0.4428 H       1  LIG1        0.0278
     35 C          -3.8053    8.6639    0.8920 C.ar    1  LIG1        0.0438
     36 C          -4.4593    9.6085    0.1427 C.ar    1  LIG1        0.0699
     37 C          -5.4496   10.3585    0.8717 C.ar    1  LIG1       -0.0255
     38 C          -5.5123    9.9336    2.1611 C.ar    1  LIG1       -0.0196
     39 S          -4.3954    8.6694    2.5083 S.2     1  LIG1       -0.0945
     40 H          -6.1635   10.3028    2.9377 H       1  LIG1        0.0696
     41 N          -4.0247    9.9808   -2.3811 N.1     1  LIG1       -0.1908
     42 C          -4.2107    9.8038   -1.2620 C.1     1  LIG1        0.1006
     43 C          -6.2885   11.4485    0.2476 C.3     1  LIG1       -0.0380
     44 H          -6.9804   11.8555    0.9827 H       1  LIG1        0.0278
     45 H          -6.8546   11.0484   -0.5942 H       1  LIG1        0.0278
     46 H          -5.6462   12.2492   -0.1209 H       1  LIG1        0.0278
@<TRIPOS>BOND
     1     6     1    1
     2     5     1   ar
     3     5     4   ar
     4    41    42    3
     5     1     2   ar
     6    29    30    3
     7    33    31    1
     8    42    36    1
     9    30    25    1
    10     4    13    1
    11     4     3   ar
    12     2     8    1
    13     2     3   ar
    14    17    13   ar
    15    17    16   ar
    16    31    34    1
    17    31    26    1
    18    31    32    1
    19    45    43    1
    20    13    14   ar
    21    25    26   ar
    22    25    24   ar
    23     8     7    3
    24    26    27   ar
    25     3     9    1
    26    46    43    1
    27    16    24    1
    28    16    15   ar
    29    14    19    1
    30    14    15   ar
    31    24    28   ar
    32    22    20    1
    33    36    37   ar
    34    36    35   ar
    35    19    18    3
    36    43    37    1
    37    43    44    1
    38    15    20    1
    39    27    28   ar
    40    27    35    1
    41    37    38   ar
    42    20    21    1
    43    20    23    1
    44    35    39   ar
    45     9    11    1
    46     9    10    1
    47     9    12    1
    48    38    39   ar
    49    38    40    1
