@<TRIPOS>MOLECULE
mol_data/opt/m06hf/geoms/mol2/5di5di5di.out
 35 37 0 0 0
SMALL
GASTEIGER

@<TRIPOS>ATOM
      1 C          -1.7522   -1.6879   -1.4493 C.ar    1  LIG1       -0.0061
      2 C          -0.8006   -1.8406   -0.4836 C.ar    1  LIG1        0.0623
      3 C          -0.3313   -0.6017    0.0830 C.ar    1  LIG1       -0.0178
      4 C          -0.9649    0.4561   -0.5061 C.ar    1  LIG1        0.0313
      5 S          -2.1084   -0.0403   -1.7151 S.2     1  LIG1       -0.0945
      6 H          -2.2490   -2.4669   -2.0050 H       1  LIG1        0.0706
      7 N           0.0638   -4.1451    0.3212 N.1     1  LIG1       -0.1908
      8 C          -0.3219   -3.1286   -0.0467 C.1     1  LIG1        0.1000
      9 C           0.6935   -0.5434    1.1898 C.3     1  LIG1       -0.0374
     10 H           0.6680    0.4306    1.6770 H       1  LIG1        0.0278
     11 H           1.6917   -0.7070    0.7808 H       1  LIG1        0.0278
     12 H           0.4786   -1.3213    1.9228 H       1  LIG1        0.0278
     13 C          -0.7539    1.8834   -0.2393 C.ar    1  LIG1        0.0444
     14 C           0.4372    2.5627   -0.2385 C.ar    1  LIG1        0.0705
     15 C           0.3257    3.9659    0.0581 C.ar    1  LIG1       -0.0172
     16 C          -0.9835    4.3064    0.2559 C.ar    1  LIG1        0.0319
     17 S          -2.0543    2.9487    0.1125 S.2     1  LIG1       -0.0856
     18 N           2.7048    1.4270   -0.7566 N.1     1  LIG1       -0.1908
     19 C           1.6941    1.9250   -0.5351 C.1     1  LIG1        0.1006
     20 C           1.5217    4.8834    0.1385 C.3     1  LIG1       -0.0374
     21 H           1.2602    5.7941    0.6757 H       1  LIG1        0.0278
     22 H           1.8540    5.1493   -0.8662 H       1  LIG1        0.0278
     23 H           2.3343    4.3757    0.6586 H       1  LIG1        0.0278
     24 C          -1.5251    5.6412    0.5367 C.ar    1  LIG1        0.0438
     25 C          -1.3032    6.7941   -0.1723 C.ar    1  LIG1        0.0699
     26 C          -1.9876    7.9489    0.3490 C.ar    1  LIG1       -0.0255
     27 C          -2.7191    7.6119    1.4433 C.ar    1  LIG1       -0.0196
     28 S          -2.5827    5.9468    1.8584 S.2     1  LIG1       -0.0945
     29 H          -3.3391    8.2646    2.0373 H       1  LIG1        0.0696
     30 N           0.1600    6.8863   -2.3054 N.1     1  LIG1       -0.1908
     31 C          -0.4904    6.8350   -1.3604 C.1     1  LIG1        0.1006
     32 C          -1.8927    9.3207   -0.2755 C.3     1  LIG1       -0.0380
     33 H          -2.5095   10.0268    0.2772 H       1  LIG1        0.0278
     34 H          -2.2326    9.2828   -1.3113 H       1  LIG1        0.0278
     35 H          -0.8583    9.6659   -0.2659 H       1  LIG1        0.0278
@<TRIPOS>BOND
     1    30    31    3
     2     6     1    1
     3     5     1   ar
     4     5     4   ar
     5     1     2   ar
     6    31    25    1
     7    34    32    1
     8    22    20    1
     9    18    19    3
    10    19    14    1
    11     4    13    1
    12     4     3   ar
    13     2     8    1
    14     2     3   ar
    15    32    35    1
    16    32    33    1
    17    32    26    1
    18    13    14   ar
    19    13    17   ar
    20    14    15   ar
    21    25    26   ar
    22    25    24   ar
    23     8     7    3
    24    15    20    1
    25    15    16   ar
    26     3     9    1
    27    17    16   ar
    28    20    23    1
    29    20    21    1
    30    16    24    1
    31    26    27   ar
    32    24    28   ar
    33    11     9    1
    34     9    10    1
    35     9    12    1
    36    27    28   ar
    37    27    29    1
