@<TRIPOS>MOLECULE
mol_data/opt/m06hf/geoms/mol2/5di5di5di5di.out
 46 49 0 0 0
SMALL
GASTEIGER

@<TRIPOS>ATOM
      1 C          -1.1484   -1.5761   -2.2111 C.ar    1  LIG1       -0.0061
      2 C          -0.7394   -1.7911   -0.9277 C.ar    1  LIG1        0.0623
      3 C          -0.4939   -0.5856   -0.1776 C.ar    1  LIG1       -0.0178
      4 C          -0.7319    0.5115   -0.9576 C.ar    1  LIG1        0.0313
      5 S          -1.2433    0.0917   -2.5620 S.2     1  LIG1       -0.0945
      6 H          -1.3928   -2.3201   -2.9521 H       1  LIG1        0.0706
      7 N          -0.4600   -4.1429    0.1181 N.1     1  LIG1       -0.1908
      8 C          -0.5834   -3.1064   -0.3587 C.1     1  LIG1        0.1000
      9 C          -0.0626   -0.5941    1.2690 C.3     1  LIG1       -0.0374
     10 H          -0.2470    0.3782    1.7238 H       1  LIG1        0.0278
     11 H           1.0033   -0.8177    1.3368 H       1  LIG1        0.0278
     12 H          -0.6209   -1.3588    1.8090 H       1  LIG1        0.0278
     13 C          -0.5779    1.9207   -0.5769 C.ar    1  LIG1        0.0444
     14 C           0.5284    2.5180   -0.0284 C.ar    1  LIG1        0.0705
     15 C           0.3730    3.9196    0.2542 C.ar    1  LIG1       -0.0172
     16 C          -0.8722    4.3425   -0.1209 C.ar    1  LIG1        0.0319
     17 S          -1.8428    3.0650   -0.7786 S.2     1  LIG1       -0.0856
     18 N           2.7313    1.2474    0.4499 N.1     1  LIG1       -0.1908
     19 C           1.7521    1.8033    0.2264 C.1     1  LIG1        0.1006
     20 C           1.4608    4.7515    0.8886 C.3     1  LIG1       -0.0374
     21 H           1.0434    5.6742    1.2897 H       1  LIG1        0.0278
     22 H           2.2188    5.0012    0.1443 H       1  LIG1        0.0278
     23 H           1.9280    4.1848    1.6946 H       1  LIG1        0.0278
     24 C          -1.4110    5.7047   -0.0320 C.ar    1  LIG1        0.0444
     25 C          -0.8411    6.8581   -0.5076 C.ar    1  LIG1        0.0705
     26 C          -1.6019    8.0515   -0.2512 C.ar    1  LIG1       -0.0172
     27 C          -2.7605    7.7424    0.4064 C.ar    1  LIG1        0.0319
     28 S          -2.9140    6.0467    0.7288 S.2     1  LIG1       -0.0856
     29 N           1.4190    6.8958   -1.7688 N.1     1  LIG1       -0.1908
     30 C           0.4127    6.8696   -1.2163 C.1     1  LIG1        0.1006
     31 C          -1.1300    9.4264   -0.6570 C.3     1  LIG1       -0.0374
     32 H          -1.6537   10.1877   -0.0804 H       1  LIG1        0.0278
     33 H          -1.3272    9.5904   -1.7176 H       1  LIG1        0.0278
     34 H          -0.0581    9.5094   -0.4778 H       1  LIG1        0.0278
     35 C          -3.8188    8.6646    0.8342 C.ar    1  LIG1        0.0438
     36 C          -4.4691    9.6034    0.0744 C.ar    1  LIG1        0.0699
     37 C          -5.4663   10.3557    0.7915 C.ar    1  LIG1       -0.0255
     38 C          -5.5377    9.9385    2.0829 C.ar    1  LIG1       -0.0196
     39 S          -4.4209    8.6786    2.4460 S.2     1  LIG1       -0.0945
     40 H          -6.1954   10.3110    2.8524 H       1  LIG1        0.0696
     41 N          -4.0165    9.9615   -2.4484 N.1     1  LIG1       -0.1908
     42 C          -4.2105    9.7908   -1.3296 C.1     1  LIG1        0.1006
     43 C          -6.3027   11.4402    0.1547 C.3     1  LIG1       -0.0380
     44 H          -7.0008   11.8502    0.8821 H       1  LIG1        0.0278
     45 H          -6.8618   11.0340   -0.6889 H       1  LIG1        0.0278
     46 H          -5.6593   12.2400   -0.2139 H       1  LIG1        0.0278
@<TRIPOS>BOND
     1     6     1    1
     2     5     1   ar
     3     5     4   ar
     4    41    42    3
     5     1     2   ar
     6    29    30    3
     7    33    31    1
     8    42    36    1
     9    30    25    1
    10     4    13    1
    11     4     3   ar
    12     2     8    1
    13     2     3   ar
    14    17    13   ar
    15    17    16   ar
    16    45    43    1
    17    31    34    1
    18    31    26    1
    19    31    32    1
    20    13    14   ar
    21    25    26   ar
    22    25    24   ar
    23     8     7    3
    24    26    27   ar
    25    46    43    1
    26     3     9    1
    27    16    24    1
    28    16    15   ar
    29    24    28   ar
    30    14    19    1
    31    14    15   ar
    32    36    37   ar
    33    36    35   ar
    34    22    20    1
    35    43    37    1
    36    43    44    1
    37    19    18    3
    38    15    20    1
    39    27    28   ar
    40    27    35    1
    41    37    38   ar
    42    35    39   ar
    43    20    21    1
    44    20    23    1
    45     9    11    1
    46     9    10    1
    47     9    12    1
    48    38    39   ar
    49    38    40    1
