@<TRIPOS>MOLECULE
mol_data/opt/m06hf/geoms/mol2/5di5di-5di-5di-.out
 46 49 0 0 0
SMALL
GASTEIGER

@<TRIPOS>ATOM
      1 C          -1.1442   -1.5559   -2.2593 C.ar    1  LIG1       -0.0061
      2 C          -0.7401   -1.7829   -0.9763 C.ar    1  LIG1        0.0623
      3 C          -0.4968   -0.5845   -0.2144 C.ar    1  LIG1       -0.0178
      4 C          -0.7311    0.5199   -0.9852 C.ar    1  LIG1        0.0313
      5 S          -1.2366    0.1151   -2.5954 S.2     1  LIG1       -0.0945
      6 H          -1.3863   -2.2930   -3.0079 H       1  LIG1        0.0706
      7 N          -0.4663   -4.1443    0.0490 N.1     1  LIG1       -0.1908
      8 C          -0.5871   -3.1035   -0.4188 C.1     1  LIG1        0.1000
      9 C          -0.0710   -0.6065    1.2337 C.3     1  LIG1       -0.0374
     10 H          -0.2561    0.3619    1.6965 H       1  LIG1        0.0278
     11 H           0.9943   -0.8320    1.3036 H       1  LIG1        0.0278
     12 H          -0.6324   -1.3753    1.7647 H       1  LIG1        0.0278
     13 C          -0.5776    1.9254   -0.5911 C.ar    1  LIG1        0.0444
     14 C           0.5270    2.5169   -0.0331 C.ar    1  LIG1        0.0705
     15 C           0.3714    3.9160    0.2619 C.ar    1  LIG1       -0.0172
     16 C          -0.8721    4.3432   -0.1140 C.ar    1  LIG1        0.0319
     17 S          -1.8409    3.0724   -0.7872 S.2     1  LIG1       -0.0856
     18 N           2.7272    1.2405    0.4421 N.1     1  LIG1       -0.1908
     19 C           1.7493    1.7991    0.2198 C.1     1  LIG1        0.1006
     20 C           1.4574    4.7413    0.9081 C.3     1  LIG1       -0.0374
     21 H           1.0390    5.6605    1.3162 H       1  LIG1        0.0278
     22 H           2.2183    4.9974    0.1690 H       1  LIG1        0.0278
     23 H           1.9212    4.1669    1.7104 H       1  LIG1        0.0278
     24 C          -1.4105    5.7049   -0.0146 C.ar    1  LIG1        0.0444
     25 C          -0.8381    6.8622   -0.4775 C.ar    1  LIG1        0.0705
     26 C          -1.5993    8.0536   -0.2131 C.ar    1  LIG1       -0.0172
     27 C          -2.7606    7.7391    0.4373 C.ar    1  LIG1        0.0319
     28 S          -2.9161    6.0407    0.7436 S.2     1  LIG1       -0.0856
     29 N           1.4267    6.9100   -1.7298 N.1     1  LIG1       -0.1908
     30 C           0.4183    6.8794   -1.1815 C.1     1  LIG1        0.1006
     31 C          -1.1252    9.4319   -0.6046 C.3     1  LIG1       -0.0374
     32 H          -1.6505   10.1882   -0.0229 H       1  LIG1        0.0278
     33 H          -1.3185    9.6058   -1.6643 H       1  LIG1        0.0278
     34 H          -0.0539    9.5127   -0.4208 H       1  LIG1        0.0278
     35 C          -3.8200    8.6580    0.8695 C.ar    1  LIG1        0.0438
     36 C          -4.4670    9.6040    0.1159 C.ar    1  LIG1        0.0699
     37 C          -5.4664   10.3504    0.8361 C.ar    1  LIG1       -0.0255
     38 C          -5.5429    9.9214    2.1234 C.ar    1  LIG1       -0.0196
     39 S          -4.4283    8.6574    2.4790 S.2     1  LIG1       -0.0945
     40 H          -6.2033   10.2872    2.8938 H       1  LIG1        0.0696
     41 N          -4.0046    9.9852   -2.4017 N.1     1  LIG1       -0.1908
     42 C          -4.2028    9.8042   -1.2853 C.1     1  LIG1        0.1006
     43 C          -6.2997   11.4413    0.2062 C.3     1  LIG1       -0.0380
     44 H          -7.0003   11.8450    0.9347 H       1  LIG1        0.0278
     45 H          -6.8557   11.0433   -0.6432 H       1  LIG1        0.0278
     46 H          -5.6544   12.2441   -0.1525 H       1  LIG1        0.0278
@<TRIPOS>BOND
     1     6     1    1
     2     5     1   ar
     3     5     4   ar
     4    41    42    3
     5     1     2   ar
     6    29    30    3
     7    33    31    1
     8    42    36    1
     9    30    25    1
    10     4    13    1
    11     4     3   ar
    12     2     8    1
    13     2     3   ar
    14    17    13   ar
    15    17    16   ar
    16    45    43    1
    17    31    34    1
    18    31    26    1
    19    31    32    1
    20    13    14   ar
    21    25    26   ar
    22    25    24   ar
    23     8     7    3
    24     3     9    1
    25    26    27   ar
    26    46    43    1
    27    16    24    1
    28    16    15   ar
    29    14    19    1
    30    14    15   ar
    31    24    28   ar
    32    36    37   ar
    33    36    35   ar
    34    22    20    1
    35    43    37    1
    36    43    44    1
    37    19    18    3
    38    15    20    1
    39    27    28   ar
    40    27    35    1
    41    37    38   ar
    42    35    39   ar
    43    20    21    1
    44    20    23    1
    45     9    11    1
    46     9    10    1
    47     9    12    1
    48    38    39   ar
    49    38    40    1
