@<TRIPOS>MOLECULE
mol_data/opt/m06hf/geoms/mol2/5di5di5di5di-.out
 46 49 0 0 0
SMALL
GASTEIGER

@<TRIPOS>ATOM
      1 C          -1.1473   -1.5789   -2.2067 C.ar    1  LIG1       -0.0061
      2 C          -0.7381   -1.7921   -0.9230 C.ar    1  LIG1        0.0623
      3 C          -0.4928   -0.5856   -0.1745 C.ar    1  LIG1       -0.0178
      4 C          -0.7311    0.5105   -0.9560 C.ar    1  LIG1        0.0313
      5 S          -1.2424    0.0884   -2.5598 S.2     1  LIG1       -0.0945
      6 H          -1.3915   -2.3240   -2.9467 H       1  LIG1        0.0706
      7 N          -0.4582   -4.1425    0.1258 N.1     1  LIG1       -0.1908
      8 C          -0.5818   -3.1067   -0.3523 C.1     1  LIG1        0.1000
      9 C          -0.0614   -0.5921    1.2720 C.3     1  LIG1       -0.0374
     10 H          -0.2460    0.3807    1.7256 H       1  LIG1        0.0278
     11 H           1.0045   -0.8154    1.3401 H       1  LIG1        0.0278
     12 H          -0.6196   -1.3562    1.8131 H       1  LIG1        0.0278
     13 C          -0.5773    1.9201   -0.5772 C.ar    1  LIG1        0.0444
     14 C           0.5289    2.5183   -0.0295 C.ar    1  LIG1        0.0705
     15 C           0.3732    3.9203    0.2513 C.ar    1  LIG1       -0.0172
     16 C          -0.8720    4.3425   -0.1243 C.ar    1  LIG1        0.0319
     17 S          -1.8424    3.0639   -0.7803 S.2     1  LIG1       -0.0856
     18 N           2.7321    1.2488    0.4504 N.1     1  LIG1       -0.1908
     19 C           1.7528    1.8042    0.2262 C.1     1  LIG1        0.1006
     20 C           1.4610    4.7532    0.8846 C.3     1  LIG1       -0.0374
     21 H           1.0434    5.6764    1.2845 H       1  LIG1        0.0278
     22 H           2.2189    5.0021    0.1399 H       1  LIG1        0.0278
     23 H           1.9283    4.1877    1.6912 H       1  LIG1        0.0278
     24 C          -1.4111    5.7047   -0.0371 C.ar    1  LIG1        0.0444
     25 C          -0.8414    6.8576   -0.5143 C.ar    1  LIG1        0.0705
     26 C          -1.6025    8.0512   -0.2594 C.ar    1  LIG1       -0.0172
     27 C          -2.7610    7.7427    0.3986 C.ar    1  LIG1        0.0319
     28 S          -2.9141    6.0475    0.7233 S.2     1  LIG1       -0.0856
     29 N           1.4187    6.8940   -1.7756 N.1     1  LIG1       -0.1908
     30 C           0.4124    6.8683   -1.2231 C.1     1  LIG1        0.1006
     31 C          -1.1307    9.4256   -0.6671 C.3     1  LIG1       -0.0374
     32 H          -1.6545   10.1876   -0.0914 H       1  LIG1        0.0278
     33 H          -1.3281    9.5883   -1.7278 H       1  LIG1        0.0278
     34 H          -0.0588    9.5091   -0.4881 H       1  LIG1        0.0278
     35 C          -3.8194    8.6654    0.8253 C.ar    1  LIG1        0.0438
     36 C          -4.4699    9.6030    0.0642 C.ar    1  LIG1        0.0699
     37 C          -5.4672   10.3561    0.7804 C.ar    1  LIG1       -0.0255
     38 C          -5.5384    9.9405    2.0724 C.ar    1  LIG1       -0.0196
     39 S          -4.4214    8.6813    2.4370 S.2     1  LIG1       -0.0945
     40 H          -6.1962   10.3139    2.8414 H       1  LIG1        0.0696
     41 N          -4.0175    9.9579   -2.4590 N.1     1  LIG1       -0.1908
     42 C          -4.2114    9.7886   -1.3400 C.1     1  LIG1        0.1006
     43 C          -6.3038   11.4396    0.1422 C.3     1  LIG1       -0.0380
     44 H          -7.0020   11.8504    0.8692 H       1  LIG1        0.0278
     45 H          -6.8628   11.0322   -0.7008 H       1  LIG1        0.0278
     46 H          -5.6606   12.2390   -0.2274 H       1  LIG1        0.0278
@<TRIPOS>BOND
     1     6     1    1
     2     5     1   ar
     3     5     4   ar
     4    41    42    3
     5     1     2   ar
     6    29    30    3
     7    33    31    1
     8    42    36    1
     9    30    25    1
    10     4    13    1
    11     4     3   ar
    12     2     8    1
    13     2     3   ar
    14    17    13   ar
    15    17    16   ar
    16    45    43    1
    17    31    34    1
    18    31    26    1
    19    31    32    1
    20    13    14   ar
    21    25    26   ar
    22    25    24   ar
    23     8     7    3
    24    26    27   ar
    25    46    43    1
    26     3     9    1
    27    16    24    1
    28    16    15   ar
    29    24    28   ar
    30    14    19    1
    31    14    15   ar
    32    36    37   ar
    33    36    35   ar
    34    22    20    1
    35    43    37    1
    36    43    44    1
    37    19    18    3
    38    15    20    1
    39    27    28   ar
    40    27    35    1
    41    37    38   ar
    42    35    39   ar
    43    20    21    1
    44    20    23    1
    45     9    11    1
    46     9    10    1
    47     9    12    1
    48    38    39   ar
    49    38    40    1
