@<TRIPOS>MOLECULE
mol_data/opt/m06hf/geoms/mol2/5di5di.out
 24 25 0 0 0
SMALL
GASTEIGER

@<TRIPOS>ATOM
      1 C          -2.0383   -1.7422   -0.7611 C.ar    1  LIG1       -0.0061
      2 C          -0.7830   -1.8162   -0.2324 C.ar    1  LIG1        0.0623
      3 C          -0.2332   -0.5443    0.1639 C.ar    1  LIG1       -0.0178
      4 C          -1.1223    0.4589   -0.1020 C.ar    1  LIG1        0.0313
      5 S          -2.5939   -0.1282   -0.8119 S.2     1  LIG1       -0.0945
      6 H          -2.6456   -2.5578   -1.1185 H       1  LIG1        0.0706
      7 N           0.5110   -4.0361    0.0891 N.1     1  LIG1       -0.1908
      8 C          -0.0712   -3.0585   -0.0619 C.1     1  LIG1        0.1000
      9 C           1.1253   -0.4054    0.8069 C.3     1  LIG1       -0.0374
     10 H           1.2039    0.5526    1.3194 H       1  LIG1        0.0278
     11 H           1.9056   -0.4630    0.0463 H       1  LIG1        0.0278
     12 H           1.2696   -1.2133    1.5246 H       1  LIG1        0.0278
     13 C          -0.9453    1.8963    0.1341 C.ar    1  LIG1        0.0438
     14 C           0.1052    2.6864   -0.2571 C.ar    1  LIG1        0.0699
     15 C          -0.0175    4.0680    0.1321 C.ar    1  LIG1       -0.0255
     16 C          -1.1823    4.2702    0.8021 C.ar    1  LIG1       -0.0196
     17 S          -2.1104    2.8317    0.9857 S.2     1  LIG1       -0.0945
     18 H          -1.5472    5.2010    1.2061 H       1  LIG1        0.0696
     19 N           2.1190    1.8037   -1.6227 N.1     1  LIG1       -0.1908
     20 C           1.2182    2.1855   -1.0213 C.1     1  LIG1        0.1006
     21 C           1.0199    5.1170   -0.1906 C.3     1  LIG1       -0.0380
     22 H           0.7056    6.0841    0.1972 H       1  LIG1        0.0278
     23 H           1.1548    5.1912   -1.2705 H       1  LIG1        0.0278
     24 H           1.9776    4.8466    0.2560 H       1  LIG1        0.0278
@<TRIPOS>BOND
     1    19    20    3
     2    23    21    1
     3     6     1    1
     4    20    14    1
     5     5     1   ar
     6     5     4   ar
     7     1     2   ar
     8    14    15   ar
     9    14    13   ar
    10     2     8    1
    11     2     3   ar
    12    21    15    1
    13    21    22    1
    14    21    24    1
    15     4    13    1
    16     4     3   ar
    17     8     7    3
    18    11     9    1
    19    15    16   ar
    20    13    17   ar
    21     3     9    1
    22    16    17   ar
    23    16    18    1
    24     9    10    1
    25     9    12    1
