@<TRIPOS>MOLECULE
mol_data/opt/m06hf/geoms/mol2/5di5di5di-5di-.out
 46 49 0 0 0
SMALL
GASTEIGER

@<TRIPOS>ATOM
      1 C          -1.1458   -1.5838   -2.1961 C.ar    1  LIG1       -0.0061
      2 C          -0.7357   -1.7939   -0.9122 C.ar    1  LIG1        0.0623
      3 C          -0.4904   -0.5855   -0.1667 C.ar    1  LIG1       -0.0178
      4 C          -0.7296    0.5086   -0.9505 C.ar    1  LIG1        0.0313
      5 S          -1.2419    0.0827   -2.5531 S.2     1  LIG1       -0.0945
      6 H          -1.3902   -2.3307   -2.9342 H       1  LIG1        0.0706
      7 N          -0.4541   -4.1416    0.1420 N.1     1  LIG1       -0.1908
      8 C          -0.5784   -3.1070   -0.3385 C.1     1  LIG1        0.1000
      9 C          -0.0580   -0.5885    1.2796 C.3     1  LIG1       -0.0374
     10 H          -0.2428    0.3854    1.7310 H       1  LIG1        0.0278
     11 H           1.0080   -0.8111    1.3475 H       1  LIG1        0.0278
     12 H          -0.6155   -1.3515    1.8228 H       1  LIG1        0.0278
     13 C          -0.5763    1.9192   -0.5751 C.ar    1  LIG1        0.0444
     14 C           0.5301    2.5192   -0.0296 C.ar    1  LIG1        0.0705
     15 C           0.3740    3.9218    0.2480 C.ar    1  LIG1       -0.0172
     16 C          -0.8717    4.3425   -0.1278 C.ar    1  LIG1        0.0319
     17 S          -1.8419    3.0620   -0.7801 S.2     1  LIG1       -0.0856
     18 N           2.7341    1.2518    0.4518 N.1     1  LIG1       -0.1908
     19 C           1.7545    1.8062    0.2269 C.1     1  LIG1        0.1006
     20 C           1.4618    4.7566    0.8786 C.3     1  LIG1       -0.0374
     21 H           1.0441    5.6806    1.2766 H       1  LIG1        0.0278
     22 H           2.2191    5.0041    0.1329 H       1  LIG1        0.0278
     23 H           1.9299    4.1933    1.6863 H       1  LIG1        0.0278
     24 C          -1.4113    5.7048   -0.0434 C.ar    1  LIG1        0.0444
     25 C          -0.8425    6.8567   -0.5237 C.ar    1  LIG1        0.0705
     26 C          -1.6038    8.0506   -0.2710 C.ar    1  LIG1       -0.0172
     27 C          -2.7618    7.7431    0.3885 C.ar    1  LIG1        0.0319
     28 S          -2.9140    6.0486    0.7172 S.2     1  LIG1       -0.0856
     29 N           1.4168    6.8912   -1.7865 N.1     1  LIG1       -0.1908
     30 C           0.4109    6.8664   -1.2333 C.1     1  LIG1        0.1006
     31 C          -1.1330    9.4242   -0.6822 C.3     1  LIG1       -0.0374
     32 H          -1.6568   10.1874   -0.1080 H       1  LIG1        0.0278
     33 H          -1.3311    9.5843   -1.7432 H       1  LIG1        0.0278
     34 H          -0.0610    9.5086   -0.5041 H       1  LIG1        0.0278
     35 C          -3.8204    8.6663    0.8137 C.ar    1  LIG1        0.0438
     36 C          -4.4718    9.6019    0.0509 C.ar    1  LIG1        0.0699
     37 C          -5.4689   10.3562    0.7660 C.ar    1  LIG1       -0.0255
     38 C          -5.5391    9.9437    2.0590 C.ar    1  LIG1       -0.0196
     39 S          -4.4213    8.6858    2.4258 S.2     1  LIG1       -0.0945
     40 H          -6.1966   10.3185    2.8276 H       1  LIG1        0.0696
     41 N          -4.0212    9.9511   -2.4735 N.1     1  LIG1       -0.1908
     42 C          -4.2143    9.7843   -1.3540 C.1     1  LIG1        0.1006
     43 C          -6.3064   11.4379    0.1258 C.3     1  LIG1       -0.0380
     44 H          -7.0043   11.8501    0.8522 H       1  LIG1        0.0278
     45 H          -6.8658   11.0283   -0.7159 H       1  LIG1        0.0278
     46 H          -5.6638   12.2367   -0.2461 H       1  LIG1        0.0278
@<TRIPOS>BOND
     1     6     1    1
     2     5     1   ar
     3     5     4   ar
     4    41    42    3
     5     1     2   ar
     6    29    30    3
     7    33    31    1
     8    42    36    1
     9    30    25    1
    10     4    13    1
    11     4     3   ar
    12     2     8    1
    13     2     3   ar
    14    17    13   ar
    15    17    16   ar
    16    45    43    1
    17    31    34    1
    18    31    26    1
    19    31    32    1
    20    13    14   ar
    21    25    26   ar
    22    25    24   ar
    23     8     7    3
    24    26    27   ar
    25    46    43    1
    26     3     9    1
    27    16    24    1
    28    16    15   ar
    29    24    28   ar
    30    14    19    1
    31    14    15   ar
    32    36    37   ar
    33    36    35   ar
    34    43    37    1
    35    43    44    1
    36    22    20    1
    37    19    18    3
    38    15    20    1
    39    27    28   ar
    40    27    35    1
    41    37    38   ar
    42    35    39   ar
    43    20    21    1
    44    20    23    1
    45     9    11    1
    46     9    10    1
    47     9    12    1
    48    38    39   ar
    49    38    40    1
