@<TRIPOS>MOLECULE
mol_data/opt/m06hf/geoms/mol2/5di5di5di-.out
 35 37 0 0 0
SMALL
GASTEIGER

@<TRIPOS>ATOM
      1 C          -1.7434   -1.6802   -1.4777 C.ar    1  LIG1       -0.0061
      2 C          -0.8005   -1.8381   -0.5043 C.ar    1  LIG1        0.0623
      3 C          -0.3353   -0.6021    0.0721 C.ar    1  LIG1       -0.0178
      4 C          -0.9628    0.4588   -0.5177 C.ar    1  LIG1        0.0313
      5 S          -2.0959   -0.0311   -1.7391 S.2     1  LIG1       -0.0945
      6 H          -2.2358   -2.4562   -2.0413 H       1  LIG1        0.0706
      7 N           0.0549   -4.1469    0.2976 N.1     1  LIG1       -0.1908
      8 C          -0.3267   -3.1284   -0.0690 C.1     1  LIG1        0.1000
      9 C           0.6797   -0.5498    1.1882 C.3     1  LIG1       -0.0374
     10 H           0.6507    0.4220    1.6796 H       1  LIG1        0.0278
     11 H           1.6814   -0.7124    0.7873 H       1  LIG1        0.0278
     12 H           0.4577   -1.3308    1.9158 H       1  LIG1        0.0278
     13 C          -0.7530    1.8848   -0.2425 C.ar    1  LIG1        0.0444
     14 C           0.4386    2.5630   -0.2280 C.ar    1  LIG1        0.0705
     15 C           0.3255    3.9649    0.0740 C.ar    1  LIG1       -0.0172
     16 C          -0.9851    4.3056    0.2617 C.ar    1  LIG1        0.0319
     17 S          -2.0557    2.9495    0.1026 S.2     1  LIG1       -0.0856
     18 N           2.7097    1.4278   -0.7312 N.1     1  LIG1       -0.1908
     19 C           1.6975    1.9256   -0.5165 C.1     1  LIG1        0.1006
     20 C           1.5215    4.8810    0.1691 C.3     1  LIG1       -0.0374
     21 H           1.2560    5.7895    0.7081 H       1  LIG1        0.0278
     22 H           1.8629    5.1513   -0.8313 H       1  LIG1        0.0278
     23 H           2.3290    4.3704    0.6941 H       1  LIG1        0.0278
     24 C          -1.5281    5.6396    0.5437 C.ar    1  LIG1        0.0438
     25 C          -1.2990    6.7955   -0.1579 C.ar    1  LIG1        0.0699
     26 C          -1.9871    7.9485    0.3625 C.ar    1  LIG1       -0.0255
     27 C          -2.7285    7.6071    1.4488 C.ar    1  LIG1       -0.0196
     28 S          -2.5972    5.9400    1.8574 S.2     1  LIG1       -0.0945
     29 H          -3.3533    8.2576    2.0402 H       1  LIG1        0.0696
     30 N           0.1831    6.8962   -2.2776 N.1     1  LIG1       -0.1908
     31 C          -0.4757    6.8412   -1.3386 C.1     1  LIG1        0.1006
     32 C          -1.8856    9.3230   -0.2548 C.3     1  LIG1       -0.0380
     33 H          -2.5067   10.0272    0.2957 H       1  LIG1        0.0278
     34 H          -2.2163    9.2901   -1.2937 H       1  LIG1        0.0278
     35 H          -0.8511    9.6674   -0.2345 H       1  LIG1        0.0278
@<TRIPOS>BOND
     1    30    31    3
     2     6     1    1
     3     5     1   ar
     4     5     4   ar
     5     1     2   ar
     6    31    25    1
     7    34    32    1
     8    22    20    1
     9    18    19    3
    10     4    13    1
    11     4     3   ar
    12    19    14    1
    13     2     8    1
    14     2     3   ar
    15    32    35    1
    16    32    33    1
    17    32    26    1
    18    13    14   ar
    19    13    17   ar
    20    14    15   ar
    21    25    26   ar
    22    25    24   ar
    23     8     7    3
    24     3     9    1
    25    15    20    1
    26    15    16   ar
    27    17    16   ar
    28    20    23    1
    29    20    21    1
    30    16    24    1
    31    26    27   ar
    32    24    28   ar
    33    11     9    1
    34     9    10    1
    35     9    12    1
    36    27    28   ar
    37    27    29    1
