@<TRIPOS>MOLECULE
mol_data/opt/m06hf/geoms/mol2/5dl.out
 14 14 0 0 0
SMALL
GASTEIGER

@<TRIPOS>ATOM
      1 C          -2.2135   -1.6964    0.0003 C.ar    1  LIG1       -0.0033
      2 C          -0.8463   -1.7666   -0.0003 C.ar    1  LIG1        0.1003
      3 C          -0.2305   -0.4541   -0.0003 C.ar    1  LIG1        0.1444
      4 C          -1.1700    0.5321    0.0003 C.ar    1  LIG1        0.0187
      5 S          -2.7699   -0.0887    0.0008 S.2     1  LIG1       -0.1000
      6 H          -2.8962   -2.5303    0.0004 H       1  LIG1        0.0707
      7 H          -0.9725    1.5902    0.0004 H       1  LIG1        0.0730
      8 N           0.2968   -4.0895   -0.0012 N.1     1  LIG1       -0.1907
      9 C          -0.1925   -3.0506   -0.0008 C.1     1  LIG1        0.1034
     10 O           1.0816   -0.1412   -0.0008 O.3     1  LIG1       -0.4933
     11 C           2.0516   -1.1813   -0.0011 C.3     1  LIG1        0.0789
     12 H           3.0121   -0.6738   -0.0013 H       1  LIG1        0.0660
     13 H           1.9584   -1.7990    0.8930 H       1  LIG1        0.0660
     14 H           1.9580   -1.7990   -0.8952 H       1  LIG1        0.0660
@<TRIPOS>BOND
     1    14    11    1
     2    12    11    1
     3     8     9    3
     4    11    10    1
     5    11    13    1
     6    10     3    1
     7     9     2    1
     8     3     2   ar
     9     3     4   ar
    10     2     1   ar
    11     4     7    1
    12     4     5   ar
    13     1     6    1
    14     1     5   ar
