@<TRIPOS>MOLECULE
mol_data/opt/m06hf/geoms/mol2/5dl5dl-5dl5dl-.out
 50 53 0 0 0
SMALL
GASTEIGER

@<TRIPOS>ATOM
      1 C          -1.3332   -1.7262    2.2990 C.ar    1  LIG1       -0.0027
      2 C          -0.8667   -1.9961    1.0448 C.ar    1  LIG1        0.1009
      3 C          -0.5433   -0.7990    0.3039 C.ar    1  LIG1        0.1526
      4 C          -0.7814    0.3279    1.0452 C.ar    1  LIG1        0.0702
      5 S          -1.3976   -0.0522    2.6169 S.2     1  LIG1       -0.0910
      6 H          -1.6457   -2.4462    3.0381 H       1  LIG1        0.0708
      7 N          -0.7222   -4.4104    0.1272 N.1     1  LIG1       -0.1907
      8 C          -0.7792   -3.3376    0.5305 C.1     1  LIG1        0.1034
      9 O          -0.1330   -0.7329   -0.9712 O.3     1  LIG1       -0.4927
     10 C           0.8785   -1.6583   -1.4044 C.3     1  LIG1        0.0789
     11 H           1.3276   -1.2014   -2.2810 H       1  LIG1        0.0660
     12 H           1.6324   -1.7749   -0.6260 H       1  LIG1        0.0660
     13 H           0.4250   -2.6146   -1.6580 H       1  LIG1        0.0660
     14 C          -0.5854    1.7071    0.6018 C.ar    1  LIG1        0.0511
     15 C           0.5078    2.2299   -0.0437 C.ar    1  LIG1        0.1093
     16 C           0.3598    3.6316   -0.3525 C.ar    1  LIG1        0.1533
     17 C          -0.8417    4.1216    0.0857 C.ar    1  LIG1        0.0708
     18 S          -1.8019    2.8954    0.8388 S.2     1  LIG1       -0.0820
     19 N           2.5951    0.8086   -0.5990 N.1     1  LIG1       -0.1907
     20 C           1.6637    1.4361   -0.3593 C.1     1  LIG1        0.1040
     21 O           1.2225    4.3960   -1.0374 O.3     1  LIG1       -0.4926
     22 C           2.6226    4.2948   -0.7263 C.3     1  LIG1        0.0789
     23 H           3.0589    5.2297   -1.0651 H       1  LIG1        0.0660
     24 H           2.7597    4.1975    0.3507 H       1  LIG1        0.0660
     25 H           3.0615    3.4503   -1.2537 H       1  LIG1        0.0660
     26 C          -1.3190    5.4953   -0.0575 C.ar    1  LIG1        0.0511
     27 C          -0.6316    6.6514    0.2170 C.ar    1  LIG1        0.1093
     28 C          -1.4070    7.8407   -0.0387 C.ar    1  LIG1        0.1533
     29 C          -2.6645    7.5387   -0.4896 C.ar    1  LIG1        0.0707
     30 S          -2.9036    5.8313   -0.6309 S.2     1  LIG1       -0.0820
     31 N           1.7843    6.6388    1.1379 N.1     1  LIG1       -0.1907
     32 C           0.7153    6.6411    0.7182 C.1     1  LIG1        0.1040
     33 O          -0.9854    9.1101    0.0749 O.3     1  LIG1       -0.4926
     34 C          -0.2484    9.4766    1.2535 C.3     1  LIG1        0.0789
     35 H          -0.3639   10.5524    1.3429 H       1  LIG1        0.0660
     36 H          -0.6800    8.9907    2.1291 H       1  LIG1        0.0660
     37 H           0.8000    9.2109    1.1354 H       1  LIG1        0.0660
     38 C          -3.7110    8.4957   -0.8410 C.ar    1  LIG1        0.0505
     39 C          -4.0856    9.6182   -0.1515 C.ar    1  LIG1        0.1086
     40 C          -5.1722   10.3260   -0.7825 C.ar    1  LIG1        0.1450
     41 C          -5.5862    9.7177   -1.9243 C.ar    1  LIG1        0.0193
     42 S          -4.6706    8.3003   -2.2585 S.2     1  LIG1       -0.0910
     43 H          -6.3898   10.0360   -2.5674 H       1  LIG1        0.0731
     44 N          -3.1162   10.3715    2.1225 N.1     1  LIG1       -0.1907
     45 C          -3.5292   10.0210    1.1099 C.1     1  LIG1        0.1040
     46 O          -5.7372   11.4412   -0.2601 O.3     1  LIG1       -0.4933
     47 C          -4.9378   12.6231   -0.3821 C.3     1  LIG1        0.0789
     48 H          -5.5315   13.4281    0.0414 H       1  LIG1        0.0660
     49 H          -4.0064   12.5141    0.1748 H       1  LIG1        0.0660
     50 H          -4.7278   12.8184   -1.4347 H       1  LIG1        0.0660
@<TRIPOS>BOND
     1    43    41    1
     2    11    10    1
     3    42    41   ar
     4    42    38   ar
     5    41    40   ar
     6    13    10    1
     7    50    47    1
     8    10     9    1
     9    10    12    1
    10    25    22    1
    11    23    22    1
    12    21    22    1
    13    21    16    1
    14     9     3    1
    15    38    29    1
    16    38    39   ar
    17    40    46    1
    18    40    39   ar
    19    22    24    1
    20    30    29   ar
    21    30    26   ar
    22    19    20    3
    23    29    28   ar
    24    47    46    1
    25    47    48    1
    26    47    49    1
    27    20    15    1
    28    16    15   ar
    29    16    17   ar
    30    39    45    1
    31    26    17    1
    32    26    27   ar
    33    15    14   ar
    34    28    33    1
    35    28    27   ar
    36    33    34    1
    37    17    18   ar
    38     7     8    3
    39    27    32    1
    40     3     2   ar
    41     3     4   ar
    42     8     2    1
    43    14    18   ar
    44    14     4    1
    45    32    31    3
    46     2     1   ar
    47     4     5   ar
    48    45    44    3
    49    37    34    1
    50    34    35    1
    51    34    36    1
    52     1     5   ar
    53     1     6    1
