@<TRIPOS>MOLECULE
mol_data/opt/m06hf/geoms/mol2/5dl5dl5dl5dl.out
 50 53 0 0 0
SMALL
GASTEIGER

@<TRIPOS>ATOM
      1 C          -2.1198   -2.1957    0.2054 C.ar    1  LIG1       -0.0027
      2 C          -0.8481   -2.1507   -0.2908 C.ar    1  LIG1        0.1009
      3 C          -0.3106   -0.8105   -0.3163 C.ar    1  LIG1        0.1526
      4 C          -1.2129    0.0999    0.1683 C.ar    1  LIG1        0.0702
      5 S          -2.6955   -0.6532    0.6445 S.2     1  LIG1       -0.0910
      6 H          -2.7351   -3.0736    0.3204 H       1  LIG1        0.0708
      7 N           0.3483   -4.2667   -1.1757 N.1     1  LIG1       -0.1907
      8 C          -0.1747   -3.3249   -0.7804 C.1     1  LIG1        0.1034
      9 O           0.8788   -0.4333   -0.8059 O.3     1  LIG1       -0.4927
     10 C           2.0269   -1.2416   -0.4972 C.3     1  LIG1        0.0789
     11 H           2.8814   -0.5825   -0.6155 H       1  LIG1        0.0660
     12 H           1.9712   -1.5882    0.5350 H       1  LIG1        0.0660
     13 H           2.0881   -2.0799   -1.1882 H       1  LIG1        0.0660
     14 C          -1.0008    1.5411    0.2694 C.ar    1  LIG1        0.0511
     15 C           0.1217    2.1840    0.7296 C.ar    1  LIG1        0.1093
     16 C           0.0050    3.6202    0.6841 C.ar    1  LIG1        0.1533
     17 C          -1.2136    4.0155    0.1984 C.ar    1  LIG1        0.0708
     18 S          -2.2080    2.6609   -0.2203 S.2     1  LIG1       -0.0820
     19 N           2.1201    0.9252    1.7802 N.1     1  LIG1       -0.1907
     20 C           1.2359    1.4781    1.2994 C.1     1  LIG1        0.1040
     21 O           0.9111    4.5056    1.1220 O.3     1  LIG1       -0.4926
     22 C           2.2929    4.2813    0.7938 C.3     1  LIG1        0.0789
     23 H           2.7573    5.2628    0.8131 H       1  LIG1        0.0660
     24 H           2.7470    3.6245    1.5331 H       1  LIG1        0.0660
     25 H           2.3738    3.8582   -0.2077 H       1  LIG1        0.0660
     26 C          -1.6644    5.3924    0.0245 C.ar    1  LIG1        0.0511
     27 C          -0.9512    6.4372   -0.5085 C.ar    1  LIG1        0.1093
     28 C          -1.7002    7.6685   -0.5458 C.ar    1  LIG1        0.1533
     29 C          -2.9644    7.5110   -0.0441 C.ar    1  LIG1        0.0707
     30 S          -3.2426    5.8902    0.4931 S.2     1  LIG1       -0.0820
     31 N           1.3932    6.1416   -1.5565 N.1     1  LIG1       -0.1907
     32 C           0.3574    6.2694   -1.0773 C.1     1  LIG1        0.1040
     33 O          -1.2850    8.8274   -1.0814 O.3     1  LIG1       -0.4926
     34 C           0.0239    9.3014   -0.7196 C.3     1  LIG1        0.0789
     35 H           0.0061   10.3701   -0.9100 H       1  LIG1        0.0660
     36 H           0.2036    9.1221    0.3405 H       1  LIG1        0.0660
     37 H           0.7786    8.8130   -1.3328 H       1  LIG1        0.0660
     38 C          -4.0014    8.5376    0.0238 C.ar    1  LIG1        0.0505
     39 C          -3.8634    9.8466    0.4034 C.ar    1  LIG1        0.1086
     40 C          -5.1013   10.5836    0.3331 C.ar    1  LIG1        0.1450
     41 C          -6.1353    9.8115   -0.0897 C.ar    1  LIG1        0.0193
     42 S          -5.6329    8.1990   -0.4176 S.2     1  LIG1       -0.0910
     43 H          -7.1614   10.1176   -0.2065 H       1  LIG1        0.0731
     44 N          -1.6967   10.9298    1.3030 N.1     1  LIG1       -0.1907
     45 C          -2.6463   10.4285    0.8961 C.1     1  LIG1        0.1040
     46 O          -5.2135   11.8856    0.6922 O.3     1  LIG1       -0.4933
     47 C          -4.6405   12.8039   -0.2453 C.3     1  LIG1        0.0789
     48 H          -4.8183   13.7947    0.1626 H       1  LIG1        0.0660
     49 H          -3.5685   12.6301   -0.3441 H       1  LIG1        0.0660
     50 H          -5.1314   12.6960   -1.2137 H       1  LIG1        0.0660
@<TRIPOS>BOND
     1    31    32    3
     2    37    34    1
     3    50    47    1
     4    13    10    1
     5     7     8    3
     6    33    34    1
     7    33    28    1
     8    32    27    1
     9    35    34    1
    10     9    10    1
    11     9     3    1
    12     8     2    1
    13    34    36    1
    14    11    10    1
    15    28    27   ar
    16    28    29   ar
    17    27    26   ar
    18    10    12    1
    19    42    41   ar
    20    42    38   ar
    21    49    47    1
    22     3     2   ar
    23     3     4   ar
    24     2     1   ar
    25    47    48    1
    26    47    46    1
    27    18    17   ar
    28    18    14   ar
    29    25    22    1
    30    43    41    1
    31    41    40   ar
    32    29    38    1
    33    29    30   ar
    34    38    39   ar
    35    26    17    1
    36    26    30   ar
    37     4    14    1
    38     4     5   ar
    39    17    16   ar
    40     1     6    1
    41     1     5   ar
    42    14    15   ar
    43    40    39   ar
    44    40    46    1
    45    39    45    1
    46    16    15   ar
    47    16    21    1
    48    15    20    1
    49    22    23    1
    50    22    21    1
    51    22    24    1
    52    45    44    3
    53    20    19    3
