@<TRIPOS>MOLECULE
mol_data/opt/m06hf/geoms/mol2/5dl5dl5dl-5dl.out
 50 53 0 0 0
SMALL
GASTEIGER

@<TRIPOS>ATOM
      1 C          -1.3637   -1.7226    2.2873 C.ar    1  LIG1       -0.0027
      2 C          -0.8776   -1.9942    1.0409 C.ar    1  LIG1        0.1009
      3 C          -0.5437   -0.7981    0.3032 C.ar    1  LIG1        0.1526
      4 C          -0.7940    0.3299    1.0388 C.ar    1  LIG1        0.0702
      5 S          -1.4341   -0.0481    2.6015 S.2     1  LIG1       -0.0910
      6 H          -1.6869   -2.4417    3.0226 H       1  LIG1        0.0708
      7 N          -0.7171   -4.4099    0.1296 N.1     1  LIG1       -0.1907
      8 C          -0.7812   -3.3365    0.5302 C.1     1  LIG1        0.1034
      9 O          -0.1137   -0.7337   -0.9655 O.3     1  LIG1       -0.4927
     10 C           0.9049   -1.6590   -1.3817 C.3     1  LIG1        0.0789
     11 H           1.3671   -1.2032   -2.2520 H       1  LIG1        0.0660
     12 H           1.6468   -1.7738   -0.5915 H       1  LIG1        0.0660
     13 H           0.4560   -2.6160   -1.6407 H       1  LIG1        0.0660
     14 C          -0.5922    1.7085    0.5963 C.ar    1  LIG1        0.0511
     15 C           0.5105    2.2311   -0.0331 C.ar    1  LIG1        0.1093
     16 C           0.3662    3.6321   -0.3465 C.ar    1  LIG1        0.1533
     17 C          -0.8422    4.1219    0.0723 C.ar    1  LIG1        0.0708
     18 S          -1.8130    2.8963    0.8125 S.2     1  LIG1       -0.0820
     19 N           2.6071    0.8105   -0.5538 N.1     1  LIG1       -0.1907
     20 C           1.6716    1.4377   -0.3295 C.1     1  LIG1        0.1040
     21 O           1.2389    4.3961   -1.0192 O.3     1  LIG1       -0.4926
     22 C           2.6340    4.2965   -0.6863 C.3     1  LIG1        0.0789
     23 H           3.0749    5.2311   -1.0198 H       1  LIG1        0.0660
     24 H           2.7546    4.2009    0.3928 H       1  LIG1        0.0660
     25 H           3.0817    3.4515   -1.2056 H       1  LIG1        0.0660
     26 C          -1.3183    5.4951   -0.0805 C.ar    1  LIG1        0.0511
     27 C          -0.6360    6.6521    0.2026 C.ar    1  LIG1        0.1093
     28 C          -1.4082    7.8404   -0.0669 C.ar    1  LIG1        0.1533
     29 C          -2.6584    7.5368   -0.5367 C.ar    1  LIG1        0.0707
     30 S          -2.8940    5.8290   -0.6789 S.2     1  LIG1       -0.0820
     31 N           1.7654    6.6429    1.1608 N.1     1  LIG1       -0.1907
     32 C           0.7030    6.6437    0.7246 C.1     1  LIG1        0.1040
     33 O          -0.9894    9.1103    0.0511 O.3     1  LIG1       -0.4926
     34 C          -0.2708    9.4793    1.2404 C.3     1  LIG1        0.0789
     35 H          -0.3885   10.5551    1.3262 H       1  LIG1        0.0660
     36 H          -0.7155    8.9944    2.1099 H       1  LIG1        0.0660
     37 H           0.7794    9.2141    1.1389 H       1  LIG1        0.0660
     38 C          -3.7001    8.4925   -0.9057 C.ar    1  LIG1        0.0505
     39 C          -4.0860    9.6157   -0.2239 C.ar    1  LIG1        0.1086
     40 C          -5.1633   10.3217   -0.8728 C.ar    1  LIG1        0.1450
     41 C          -5.5592    9.7113   -2.0198 C.ar    1  LIG1        0.0193
     42 S          -4.6375    8.2940   -2.3376 S.2     1  LIG1       -0.0910
     43 H          -6.3530   10.0279   -2.6757 H       1  LIG1        0.0731
     44 N          -3.1524   10.3735    2.0635 N.1     1  LIG1       -0.1907
     45 C          -3.5494   10.0210    1.0452 C.1     1  LIG1        0.1040
     46 O          -5.7371   11.4374   -0.3610 O.3     1  LIG1       -0.4933
     47 C          -4.9368   12.6196   -0.4726 C.3     1  LIG1        0.0789
     48 H          -5.5375   13.4248   -0.0595 H       1  LIG1        0.0660
     49 H          -4.0141   12.5123    0.0988 H       1  LIG1        0.0660
     50 H          -4.7108   12.8134   -1.5221 H       1  LIG1        0.0660
@<TRIPOS>BOND
     1    43    41    1
     2    42    41   ar
     3    42    38   ar
     4    11    10    1
     5    41    40   ar
     6    13    10    1
     7    50    47    1
     8    10     9    1
     9    10    12    1
    10    25    22    1
    11    23    22    1
    12    21    22    1
    13    21    16    1
    14     9     3    1
    15    38    29    1
    16    38    39   ar
    17    40    46    1
    18    40    39   ar
    19    22    24    1
    20    30    29   ar
    21    30    26   ar
    22    19    20    3
    23    29    28   ar
    24    47    46    1
    25    47    48    1
    26    47    49    1
    27    16    15   ar
    28    16    17   ar
    29    20    15    1
    30    39    45    1
    31    26    17    1
    32    26    27   ar
    33    28    33    1
    34    28    27   ar
    35    15    14   ar
    36    33    34    1
    37    17    18   ar
    38     7     8    3
    39    27    32    1
    40     3     4   ar
    41     3     2   ar
    42     8     2    1
    43    14    18   ar
    44    14     4    1
    45    32    31    3
    46     4     5   ar
    47     2     1   ar
    48    45    44    3
    49    37    34    1
    50    34    35    1
    51    34    36    1
    52     1     5   ar
    53     1     6    1
