@<TRIPOS>MOLECULE
mol_data/opt/m06hf/geoms/mol2/5dl5dl-.out
 26 27 0 0 0
SMALL
GASTEIGER

@<TRIPOS>ATOM
      1 C          -2.2694   -1.8843    0.4074 C.ar    1  LIG1       -0.0027
      2 C          -0.9789   -1.9800   -0.0275 C.ar    1  LIG1        0.1009
      3 C          -0.3596   -0.6886   -0.2163 C.ar    1  LIG1        0.1526
      4 C          -1.2212    0.3308    0.0890 C.ar    1  LIG1        0.0701
      5 S          -2.7649   -0.2634    0.5949 S.2     1  LIG1       -0.0910
      6 H          -2.9414   -2.7014    0.6133 H       1  LIG1        0.0708
      7 N           0.1186   -4.2618   -0.5601 N.1     1  LIG1       -0.1907
      8 C          -0.3601   -3.2466   -0.3198 C.1     1  LIG1        0.1034
      9 O           0.8738   -0.4579   -0.6946 O.3     1  LIG1       -0.4927
     10 C           1.9537   -1.2499   -0.1731 C.3     1  LIG1        0.0789
     11 H           2.8537   -0.6753   -0.3709 H       1  LIG1        0.0660
     12 H           1.8326   -1.3790    0.9029 H       1  LIG1        0.0660
     13 H           1.9905   -2.2117   -0.6805 H       1  LIG1        0.0660
     14 C          -0.9296    1.7604    0.0009 C.ar    1  LIG1        0.0504
     15 C           0.2004    2.4096    0.4221 C.ar    1  LIG1        0.1086
     16 C           0.1563    3.8298    0.1728 C.ar    1  LIG1        0.1450
     17 C          -1.0024    4.2100   -0.4233 C.ar    1  LIG1        0.0193
     18 S          -2.0456    2.8688   -0.7006 S.2     1  LIG1       -0.0910
     19 H          -1.2864    5.2128   -0.6944 H       1  LIG1        0.0731
     20 N           2.1832    1.2990    1.6524 N.1     1  LIG1       -0.1907
     21 C           1.2934    1.7734    1.1030 C.1     1  LIG1        0.1040
     22 O           1.1450    4.6814    0.5389 O.3     1  LIG1       -0.4933
     23 C           2.3263    4.5897   -0.2648 C.3     1  LIG1        0.0789
     24 H           3.0123    5.3339    0.1293 H       1  LIG1        0.0660
     25 H           2.7675    3.5956   -0.1827 H       1  LIG1        0.0660
     26 H           2.0813    4.8101   -1.3051 H       1  LIG1        0.0660
@<TRIPOS>BOND
     1    26    23    1
     2    18    17   ar
     3    18    14   ar
     4     9     3    1
     5     9    10    1
     6    19    17    1
     7    13    10    1
     8     7     8    3
     9    17    16   ar
    10    11    10    1
    11     8     2    1
    12    23    25    1
    13    23    24    1
    14    23    22    1
    15     3     2   ar
    16     3     4   ar
    17    10    12    1
    18     2     1   ar
    19    14     4    1
    20    14    15   ar
    21     4     5   ar
    22    16    15   ar
    23    16    22    1
    24     1     5   ar
    25     1     6    1
    26    15    21    1
    27    21    20    3
