@<TRIPOS>MOLECULE
mol_data/opt/m06hf/geoms/mol2/5dl5dl-5dl5dl.out
 50 53 0 0 0
SMALL
GASTEIGER

@<TRIPOS>ATOM
      1 C          -2.1363   -2.1947    0.1833 C.ar    1  LIG1       -0.0027
      2 C          -0.8614   -2.1499   -0.3046 C.ar    1  LIG1        0.1009
      3 C          -0.3210   -0.8108   -0.3199 C.ar    1  LIG1        0.1526
      4 C          -1.2245    0.0991    0.1635 C.ar    1  LIG1        0.0702
      5 S          -2.7116   -0.6532    0.6264 S.2     1  LIG1       -0.0910
      6 H          -2.7543   -3.0719    0.2899 H       1  LIG1        0.0708
      7 N           0.3362   -4.2640   -1.1925 N.1     1  LIG1       -0.1907
      8 C          -0.1874   -3.3230   -0.7958 C.1     1  LIG1        0.1034
      9 O           0.8723   -0.4336   -0.8000 O.3     1  LIG1       -0.4927
     10 C           2.0167   -1.2459   -0.4881 C.3     1  LIG1        0.0789
     11 H           2.8734   -0.5880   -0.5976 H       1  LIG1        0.0660
     12 H           1.9537   -1.5976    0.5420 H       1  LIG1        0.0660
     13 H           2.0806   -2.0809   -1.1828 H       1  LIG1        0.0660
     14 C          -1.0099    1.5394    0.2733 C.ar    1  LIG1        0.0511
     15 C           0.1109    2.1776    0.7438 C.ar    1  LIG1        0.1093
     16 C          -0.0026    3.6143    0.7048 C.ar    1  LIG1        0.1533
     17 C          -1.2171    4.0145    0.2134 C.ar    1  LIG1        0.0708
     18 S          -2.2117    2.6642   -0.2185 S.2     1  LIG1       -0.0820
     19 N           2.1000    0.9092    1.8008 N.1     1  LIG1       -0.1907
     20 C           1.2200    1.4665    1.3172 C.1     1  LIG1        0.1040
     21 O           0.9026    4.4955    1.1530 O.3     1  LIG1       -0.4926
     22 C           2.2861    4.2699    0.8325 C.3     1  LIG1        0.0789
     23 H           2.7523    5.2503    0.8596 H       1  LIG1        0.0660
     24 H           2.7340    3.6084    1.5713 H       1  LIG1        0.0660
     25 H           2.3724    3.8517   -0.1707 H       1  LIG1        0.0660
     26 C          -1.6639    5.3932    0.0435 C.ar    1  LIG1        0.0511
     27 C          -0.9452    6.4392   -0.4797 C.ar    1  LIG1        0.1093
     28 C          -1.6913    7.6723   -0.5155 C.ar    1  LIG1        0.1533
     29 C          -2.9590    7.5149   -0.0228 C.ar    1  LIG1        0.0707
     30 S          -3.2441    5.8920    0.5045 S.2     1  LIG1       -0.0820
     31 N           1.4052    6.1439   -1.5142 N.1     1  LIG1       -0.1907
     32 C           0.3667    6.2715   -1.0410 C.1     1  LIG1        0.1040
     33 O          -1.2703    8.8330   -1.0427 O.3     1  LIG1       -0.4926
     34 C           0.0373    9.3023   -0.6701 C.3     1  LIG1        0.0789
     35 H           0.0229   10.3720   -0.8553 H       1  LIG1        0.0660
     36 H           0.2098    9.1174    0.3902 H       1  LIG1        0.0660
     37 H           0.7949    8.8155   -1.2810 H       1  LIG1        0.0660
     38 C          -3.9943    8.5434    0.0437 C.ar    1  LIG1        0.0505
     39 C          -3.8560    9.8502    0.4308 C.ar    1  LIG1        0.1086
     40 C          -5.0919   10.5901    0.3563 C.ar    1  LIG1        0.1450
     41 C          -6.1247    9.8224   -0.0771 C.ar    1  LIG1        0.0193
     42 S          -5.6237    8.2105   -0.4098 S.2     1  LIG1       -0.0910
     43 H          -7.1495   10.1313   -0.1989 H       1  LIG1        0.0731
     44 N          -1.6928   10.9243    1.3496 N.1     1  LIG1       -0.1907
     45 C          -2.6409   10.4270    0.9341 C.1     1  LIG1        0.1040
     46 O          -5.2036   11.8905    0.7211 O.3     1  LIG1       -0.4933
     47 C          -4.6228   12.8124   -0.2080 C.3     1  LIG1        0.0789
     48 H          -4.8011   13.8015    0.2037 H       1  LIG1        0.0660
     49 H          -3.5505   12.6368   -0.3008 H       1  LIG1        0.0660
     50 H          -5.1076   12.7103   -1.1801 H       1  LIG1        0.0660
@<TRIPOS>BOND
     1    31    32    3
     2    37    34    1
     3     7     8    3
     4    13    10    1
     5    50    47    1
     6    33    34    1
     7    33    28    1
     8    32    27    1
     9    35    34    1
    10     9    10    1
    11     9     3    1
    12     8     2    1
    13    34    36    1
    14    11    10    1
    15    28    27   ar
    16    28    29   ar
    17    10    12    1
    18    27    26   ar
    19    42    41   ar
    20    42    38   ar
    21     3     2   ar
    22     3     4   ar
    23     2     1   ar
    24    49    47    1
    25    18    17   ar
    26    18    14   ar
    27    47    48    1
    28    47    46    1
    29    43    41    1
    30    25    22    1
    31    41    40   ar
    32    29    38    1
    33    29    30   ar
    34    26    17    1
    35    26    30   ar
    36    38    39   ar
    37     4    14    1
    38     4     5   ar
    39     1     6    1
    40     1     5   ar
    41    17    16   ar
    42    14    15   ar
    43    40    39   ar
    44    40    46    1
    45    39    45    1
    46    16    15   ar
    47    16    21    1
    48    15    20    1
    49    22    23    1
    50    22    21    1
    51    22    24    1
    52    45    44    3
    53    20    19    3
