@<TRIPOS>MOLECULE
mol_data/opt/m06hf/geoms/mol2/5dl5dl-5dl-5dl-.out
 50 53 0 0 0
SMALL
GASTEIGER

@<TRIPOS>ATOM
      1 C          -2.1284   -2.1968   -0.1323 C.ar    1  LIG1       -0.0027
      2 C          -0.8528   -2.1475    0.3533 C.ar    1  LIG1        0.1009
      3 C          -0.3139   -0.8077    0.3595 C.ar    1  LIG1        0.1526
      4 C          -1.2193    0.0982   -0.1279 C.ar    1  LIG1        0.0702
      5 S          -2.7063   -0.6587   -0.5837 S.2     1  LIG1       -0.0910
      6 H          -2.7455   -3.0753   -0.2325 H       1  LIG1        0.0708
      7 N           0.3488   -4.2547    1.2521 N.1     1  LIG1       -0.1907
      8 C          -0.1765   -3.3169    0.8505 C.1     1  LIG1        0.1034
      9 O           0.8798   -0.4262    0.8353 O.3     1  LIG1       -0.4927
     10 C           2.0247   -1.2391    0.5265 C.3     1  LIG1        0.0789
     11 H           2.8807   -0.5794    0.6304 H       1  LIG1        0.0660
     12 H           2.0908   -2.0695    1.2264 H       1  LIG1        0.0660
     13 H           1.9603   -1.5973   -0.5012 H       1  LIG1        0.0660
     14 C          -1.0066    1.5380   -0.2467 C.ar    1  LIG1        0.0511
     15 C           0.1127    2.1746   -0.7230 C.ar    1  LIG1        0.1093
     16 C          -0.0023    3.6114   -0.6924 C.ar    1  LIG1        0.1533
     17 C          -1.2164    4.0132   -0.2013 C.ar    1  LIG1        0.0708
     18 S          -2.2088    2.6644    0.2403 S.2     1  LIG1       -0.0820
     19 N           2.1015    0.9022   -1.7756 N.1     1  LIG1       -0.1907
     20 C           1.2217    1.4613   -1.2939 C.1     1  LIG1        0.1040
     21 O           0.9012    4.4909   -1.1473 O.3     1  LIG1       -0.4926
     22 C           2.2854    4.2686   -0.8277 C.3     1  LIG1        0.0789
     23 H           2.7506    5.2494   -0.8614 H       1  LIG1        0.0660
     24 H           2.3739    3.8564    0.1777 H       1  LIG1        0.0660
     25 H           2.7329    3.6034   -1.5634 H       1  LIG1        0.0660
     26 C          -1.6644    5.3924   -0.0390 C.ar    1  LIG1        0.0511
     27 C          -0.9461    6.4423    0.4768 C.ar    1  LIG1        0.1093
     28 C          -1.6935    7.6748    0.5064 C.ar    1  LIG1        0.1533
     29 C          -2.9618    7.5131    0.0166 C.ar    1  LIG1        0.0707
     30 S          -3.2460    5.8867   -0.5002 S.2     1  LIG1       -0.0820
     31 N           1.4065    6.1558    1.5088 N.1     1  LIG1       -0.1907
     32 C           0.3670    6.2794    1.0368 C.1     1  LIG1        0.1040
     33 O          -1.2729    8.8391    1.0258 O.3     1  LIG1       -0.4926
     34 C           0.0336    9.3076    0.6484 C.3     1  LIG1        0.0789
     35 H           0.0183   10.3784    0.8270 H       1  LIG1        0.0660
     36 H           0.7927    8.8254    1.2610 H       1  LIG1        0.0660
     37 H           0.2047    9.1164   -0.4111 H       1  LIG1        0.0660
     38 C          -3.9983    8.5401   -0.0544 C.ar    1  LIG1        0.0505
     39 C          -3.8619    9.8446   -0.4497 C.ar    1  LIG1        0.1086
     40 C          -5.0984   10.5837   -0.3777 C.ar    1  LIG1        0.1450
     41 C          -6.1298    9.8175    0.0619 C.ar    1  LIG1        0.0193
     42 S          -5.6265    8.2082    0.4037 S.2     1  LIG1       -0.0910
     43 H          -7.1547   10.1261    0.1834 H       1  LIG1        0.0731
     44 N          -1.7013   10.9152   -1.3785 N.1     1  LIG1       -0.1907
     45 C          -2.6482   10.4196   -0.9584 C.1     1  LIG1        0.1040
     46 O          -5.2121   11.8817   -0.7503 O.3     1  LIG1       -0.4933
     47 C          -4.6309   12.8098    0.1724 C.3     1  LIG1        0.0789
     48 H          -4.8109   13.7962   -0.2450 H       1  LIG1        0.0660
     49 H          -5.1142   12.7131    1.1458 H       1  LIG1        0.0660
     50 H          -3.5583   12.6359    0.2647 H       1  LIG1        0.0660
@<TRIPOS>BOND
     1    19    20    3
     2    25    22    1
     3    44    45    3
     4    20    15    1
     5    21    22    1
     6    21    16    1
     7    45    39    1
     8    23    22    1
     9    22    24    1
    10    46    40    1
    11    46    47    1
    12    15    16   ar
    13    15    14   ar
    14    16    17   ar
    15     5     1   ar
    16     5     4   ar
    17    13    10    1
    18    30    26   ar
    19    30    29   ar
    20    39    40   ar
    21    39    38   ar
    22    37    34    1
    23    40    41   ar
    24    14     4    1
    25    14    18   ar
    26    48    47    1
    27     6     1    1
    28    17    26    1
    29    17    18   ar
    30     1     2   ar
    31     4     3   ar
    32    38    29    1
    33    38    42   ar
    34    26    27   ar
    35    29    28   ar
    36    41    43    1
    37    41    42   ar
    38    47    50    1
    39    47    49    1
    40     2     3   ar
    41     2     8    1
    42     3     9    1
    43    27    28   ar
    44    27    32    1
    45    28    33    1
    46    10    11    1
    47    10     9    1
    48    10    12    1
    49    34    35    1
    50    34    33    1
    51    34    36    1
    52     8     7    3
    53    32    31    3
