@<TRIPOS>MOLECULE
mol_data/opt/m06hf/geoms/mol2/5dl5dl5dl.out
 38 40 0 0 0
SMALL
GASTEIGER

@<TRIPOS>ATOM
      1 C          -2.1888   -2.0531    0.4616 C.ar    1  LIG1       -0.0027
      2 C          -0.9684   -2.0560   -0.1515 C.ar    1  LIG1        0.1009
      3 C          -0.3945   -0.7344   -0.2498 C.ar    1  LIG1        0.1526
      4 C          -1.2177    0.2116    0.3029 C.ar    1  LIG1        0.0702
      5 S          -2.6701   -0.4863    0.9304 S.2     1  LIG1       -0.0910
      6 H          -2.8173   -2.9091    0.6481 H       1  LIG1        0.0708
      7 N           0.0700   -4.2241   -1.1083 N.1     1  LIG1       -0.1907
      8 C          -0.3814   -3.2586   -0.6824 C.1     1  LIG1        0.1034
      9 O           0.7543   -0.4028   -0.8571 O.3     1  LIG1       -0.4927
     10 C           1.9020   -1.2389   -0.6344 C.3     1  LIG1        0.0789
     11 H           2.7617   -0.6115   -0.8497 H       1  LIG1        0.0660
     12 H           1.9333   -1.5565    0.4082 H       1  LIG1        0.0660
     13 H           1.8733   -2.0962   -1.3038 H       1  LIG1        0.0660
     14 C          -0.9613    1.6484    0.3516 C.ar    1  LIG1        0.0511
     15 C           0.2161    2.2746    0.6741 C.ar    1  LIG1        0.1093
     16 C           0.1241    3.7123    0.6126 C.ar    1  LIG1        0.1533
     17 C          -1.1304    4.1271    0.2556 C.ar    1  LIG1        0.0707
     18 S          -2.1888    2.7891   -0.0317 S.2     1  LIG1       -0.0820
     19 N           2.2910    0.9976    1.5379 N.1     1  LIG1       -0.1907
     20 C           1.3709    1.5572    1.1390 C.1     1  LIG1        0.1040
     21 O           1.0974    4.5776    0.9405 O.3     1  LIG1       -0.4926
     22 C           2.4008    4.3603    0.3719 C.3     1  LIG1        0.0789
     23 H           2.9039    5.3204    0.4322 H       1  LIG1        0.0660
     24 H           2.9371    3.6076    0.9463 H       1  LIG1        0.0660
     25 H           2.3039    4.0634   -0.6725 H       1  LIG1        0.0660
     26 C          -1.5849    5.5103    0.1334 C.ar    1  LIG1        0.0505
     27 C          -0.9332    6.5583   -0.4614 C.ar    1  LIG1        0.1086
     28 C          -1.6796    7.7911   -0.3977 C.ar    1  LIG1        0.1450
     29 C          -2.8717    7.6366    0.2339 C.ar    1  LIG1        0.0193
     30 S          -3.1035    6.0181    0.7700 S.2     1  LIG1       -0.0910
     31 H          -3.6174    8.3975    0.3936 H       1  LIG1        0.0731
     32 N           1.3198    6.3973   -1.7175 N.1     1  LIG1       -0.1907
     33 C           0.3219    6.4473   -1.1510 C.1     1  LIG1        0.1040
     34 O          -1.2498    8.9530   -0.9466 O.3     1  LIG1       -0.4933
     35 C          -0.1630    9.5674   -0.2447 C.3     1  LIG1        0.0789
     36 H           0.0505   10.4904   -0.7760 H       1  LIG1        0.0660
     37 H          -0.4628    9.7797    0.7828 H       1  LIG1        0.0660
     38 H           0.7149    8.9202   -0.2563 H       1  LIG1        0.0660
@<TRIPOS>BOND
     1    32    33    3
     2    13    10    1
     3    33    27    1
     4     7     8    3
     5    34    28    1
     6    34    35    1
     7     9    10    1
     8     9     3    1
     9    11    10    1
    10    36    35    1
    11     8     2    1
    12    25    22    1
    13    10    12    1
    14    27    28   ar
    15    27    26   ar
    16    28    29   ar
    17    38    35    1
    18     3     2   ar
    19     3     4   ar
    20    35    37    1
    21     2     1   ar
    22    18    17   ar
    23    18    14   ar
    24    26    17    1
    25    26    30   ar
    26    29    31    1
    27    29    30   ar
    28    17    16   ar
    29     4    14    1
    30     4     5   ar
    31    14    15   ar
    32    22    23    1
    33    22    21    1
    34    22    24    1
    35     1     6    1
    36     1     5   ar
    37    16    15   ar
    38    16    21    1
    39    15    20    1
    40    20    19    3
