@<TRIPOS>MOLECULE
mol_data/opt/m06hf/geoms/mol2/5dl5dl.out
 26 27 0 0 0
SMALL
GASTEIGER

@<TRIPOS>ATOM
      1 C          -2.2664   -1.8868    0.4183 C.ar    1  LIG1       -0.0027
      2 C          -0.9782   -1.9803   -0.0237 C.ar    1  LIG1        0.1009
      3 C          -0.3603   -0.6879   -0.2104 C.ar    1  LIG1        0.1526
      4 C          -1.2206    0.3300    0.1036 C.ar    1  LIG1        0.0701
      5 S          -2.7614   -0.2669    0.6151 S.2     1  LIG1       -0.0910
      6 H          -2.9372   -2.7050    0.6243 H       1  LIG1        0.0708
      7 N           0.1172   -4.2595   -0.5714 N.1     1  LIG1       -0.1907
      8 C          -0.3605   -3.2454   -0.3244 C.1     1  LIG1        0.1034
      9 O           0.8706   -0.4548   -0.6941 O.3     1  LIG1       -0.4927
     10 C           1.9533   -1.2487   -0.1815 C.3     1  LIG1        0.0789
     11 H           2.8522   -0.6730   -0.3816 H       1  LIG1        0.0660
     12 H           1.8379   -1.3822    0.8946 H       1  LIG1        0.0660
     13 H           1.9878   -2.2084   -0.6929 H       1  LIG1        0.0660
     14 C          -0.9298    1.7600    0.0199 C.ar    1  LIG1        0.0504
     15 C           0.2021    2.4078    0.4379 C.ar    1  LIG1        0.1086
     16 C           0.1563    3.8290    0.1947 C.ar    1  LIG1        0.1450
     17 C          -1.0057    4.2113   -0.3938 C.ar    1  LIG1        0.0193
     18 S          -2.0499    2.8709   -0.6712 S.2     1  LIG1       -0.0910
     19 H          -1.2913    5.2151   -0.6593 H       1  LIG1        0.0731
     20 N           2.1916    1.2928    1.6533 N.1     1  LIG1       -0.1907
     21 C           1.2988    1.7692    1.1105 C.1     1  LIG1        0.1040
     22 O           1.1466    4.6794    0.5591 O.3     1  LIG1       -0.4933
     23 C           2.3238    4.5914   -0.2511 C.3     1  LIG1        0.0789
     24 H           3.0115    5.3343    0.1426 H       1  LIG1        0.0660
     25 H           2.7656    3.5971   -0.1754 H       1  LIG1        0.0660
     26 H           2.0732    4.8161   -1.2891 H       1  LIG1        0.0660
@<TRIPOS>BOND
     1    26    23    1
     2     9     3    1
     3     9    10    1
     4    13    10    1
     5    18    17   ar
     6    18    14   ar
     7    19    17    1
     8     7     8    3
     9    17    16   ar
    10    11    10    1
    11     8     2    1
    12    23    25    1
    13    23    24    1
    14    23    22    1
    15     3     2   ar
    16     3     4   ar
    17    10    12    1
    18     2     1   ar
    19    14     4    1
    20    14    15   ar
    21     4     5   ar
    22    16    15   ar
    23    16    22    1
    24     1     5   ar
    25     1     6    1
    26    15    21    1
    27    21    20    3
