@<TRIPOS>MOLECULE
mol_data/opt/m06hf/geoms/mol2/5dl5dl-5dl-.out
 38 40 0 0 0
SMALL
GASTEIGER

@<TRIPOS>ATOM
      1 C          -2.2143   -2.0480   -0.3960 C.ar    1  LIG1       -0.0027
      2 C          -0.9823   -2.0524    0.1935 C.ar    1  LIG1        0.1009
      3 C          -0.4023   -0.7323    0.2753 C.ar    1  LIG1        0.1526
      4 C          -1.2330    0.2141   -0.2653 C.ar    1  LIG1        0.0702
      5 S          -2.6995   -0.4815   -0.8618 S.2     1  LIG1       -0.0910
      6 H          -2.8490   -2.9026   -0.5668 H       1  LIG1        0.0708
      7 N           0.0674   -4.2201    1.1390 N.1     1  LIG1       -0.1907
      8 C          -0.3890   -3.2548    0.7179 C.1     1  LIG1        0.1034
      9 O           0.7591   -0.4021    0.8590 O.3     1  LIG1       -0.4927
     10 C           1.8995   -1.2429    0.6176 C.3     1  LIG1        0.0789
     11 H           2.7652   -0.6174    0.8137 H       1  LIG1        0.0660
     12 H           1.8810   -2.0973    1.2909 H       1  LIG1        0.0660
     13 H           1.9097   -1.5647   -0.4241 H       1  LIG1        0.0660
     14 C          -0.9729    1.6499   -0.3249 C.ar    1  LIG1        0.0511
     15 C           0.2000    2.2709   -0.6725 C.ar    1  LIG1        0.1093
     16 C           0.1138    3.7091   -0.6152 C.ar    1  LIG1        0.1533
     17 C          -1.1322    4.1295   -0.2358 C.ar    1  LIG1        0.0707
     18 S          -2.1892    2.7962    0.0773 S.2     1  LIG1       -0.0820
     19 N           2.2538    0.9836   -1.5709 N.1     1  LIG1       -0.1907
     20 C           1.3433    1.5478   -1.1567 C.1     1  LIG1        0.1040
     21 O           1.0834    4.5699   -0.9654 O.3     1  LIG1       -0.4926
     22 C           2.3968    4.3505   -0.4211 C.3     1  LIG1        0.0789
     23 H           2.9017    5.3088   -0.4950 H       1  LIG1        0.0660
     24 H           2.3191    4.0583    0.6262 H       1  LIG1        0.0660
     25 H           2.9195    3.5938   -1.0026 H       1  LIG1        0.0660
     26 C          -1.5798    5.5147   -0.1106 C.ar    1  LIG1        0.0505
     27 C          -0.9134    6.5629    0.4673 C.ar    1  LIG1        0.1086
     28 C          -1.6569    7.7979    0.4129 C.ar    1  LIG1        0.1450
     29 C          -2.8615    7.6448   -0.1949 C.ar    1  LIG1        0.0193
     30 S          -3.1088    6.0249   -0.7199 S.2     1  LIG1       -0.0910
     31 H          -3.6077    8.4074   -0.3433 H       1  LIG1        0.0731
     32 N           1.3628    6.3996    1.6804 N.1     1  LIG1       -0.1907
     33 C           0.3544    6.4506    1.1330 C.1     1  LIG1        0.1040
     34 O          -1.2128    8.9606    0.9487 O.3     1  LIG1       -0.4933
     35 C          -0.1379    9.5686    0.2235 C.3     1  LIG1        0.0789
     36 H           0.0888   10.4930    0.7467 H       1  LIG1        0.0660
     37 H           0.7380    8.9185    0.2208 H       1  LIG1        0.0660
     38 H          -0.4567    9.7777   -0.7990 H       1  LIG1        0.0660
@<TRIPOS>BOND
     1    19    20    3
     2    20    15    1
     3    25    22    1
     4    21    16    1
     5    21    22    1
     6     5     1   ar
     7     5     4   ar
     8    38    35    1
     9    30    29   ar
    10    30    26   ar
    11    15    16   ar
    12    15    14   ar
    13    16    17   ar
    14     6     1    1
    15    23    22    1
    16    13    10    1
    17    22    24    1
    18     1     2   ar
    19    31    29    1
    20    14     4    1
    21    14    18   ar
    22     4     3   ar
    23    17    26    1
    24    17    18   ar
    25    29    28   ar
    26    26    27   ar
    27     2     3   ar
    28     2     8    1
    29    37    35    1
    30    35    36    1
    31    35    34    1
    32     3     9    1
    33    28    27   ar
    34    28    34    1
    35    27    33    1
    36    10    11    1
    37    10     9    1
    38    10    12    1
    39     8     7    3
    40    33    32    3
