@<TRIPOS>MOLECULE
mol_data/opt/m06hf/geoms/mol2/5dl5dl-5dl-5dl.out
 50 53 0 0 0
SMALL
GASTEIGER

@<TRIPOS>ATOM
      1 C          -2.2104   -2.0753    0.4606 C.ar    1  LIG1       -0.0027
      2 C          -0.8830   -2.0484    0.7797 C.ar    1  LIG1        0.1009
      3 C          -0.2963   -0.7404    0.6035 C.ar    1  LIG1        0.1526
      4 C          -1.2196    0.1661    0.1521 C.ar    1  LIG1        0.0702
      5 S          -2.7810   -0.5535   -0.0503 S.2     1  LIG1       -0.0910
      6 H          -2.8689   -2.9274    0.5145 H       1  LIG1        0.0708
      7 N           0.3509   -4.1301    1.6937 N.1     1  LIG1       -0.1907
      8 C          -0.1907   -3.2043    1.2859 C.1     1  LIG1        0.1034
      9 O           0.9619   -0.3835    0.8968 O.3     1  LIG1       -0.4927
     10 C           2.0253   -1.2731    0.5167 C.3     1  LIG1        0.0789
     11 H           2.9055   -0.6450    0.4190 H       1  LIG1        0.0660
     12 H           2.1720   -2.0269    1.2877 H       1  LIG1        0.0660
     13 H           1.7980   -1.7354   -0.4439 H       1  LIG1        0.0660
     14 C          -0.9755    1.5785   -0.1254 C.ar    1  LIG1        0.0511
     15 C           0.0976    2.1256   -0.7846 C.ar    1  LIG1        0.1093
     16 C           0.0197    3.5619   -0.8892 C.ar    1  LIG1        0.1533
     17 C          -1.1194    4.0523   -0.3079 C.ar    1  LIG1        0.0708
     18 S          -2.0845    2.7916    0.3788 S.2     1  LIG1       -0.0820
     19 N           1.9195    0.6859   -1.9217 N.1     1  LIG1       -0.1907
     20 C           1.1152    1.3211   -1.4032 C.1     1  LIG1        0.1040
     21 O           0.8761    4.3583   -1.5445 O.3     1  LIG1       -0.4926
     22 C           2.2855    4.1397   -1.3616 C.3     1  LIG1        0.0789
     23 H           2.7564    5.0859   -1.6107 H       1  LIG1        0.0660
     24 H           2.4909    3.8923   -0.3200 H       1  LIG1        0.0660
     25 H           2.6287    3.3510   -2.0277 H       1  LIG1        0.0660
     26 C          -1.5319    5.4531   -0.2728 C.ar    1  LIG1        0.0511
     27 C          -0.7632    6.5416    0.0543 C.ar    1  LIG1        0.1093
     28 C          -1.4833    7.7880   -0.0421 C.ar    1  LIG1        0.1533
     29 C          -2.7822    7.5950   -0.4306 C.ar    1  LIG1        0.0707
     30 S          -3.1281    5.9224   -0.7045 S.2     1  LIG1       -0.0820
     31 N           1.7101    6.3273    0.7762 N.1     1  LIG1       -0.1907
     32 C           0.6138    6.4193    0.4471 C.1     1  LIG1        0.1040
     33 O          -0.9766    9.0161    0.1499 O.3     1  LIG1       -0.4926
     34 C          -0.1506    9.2365    1.3059 C.3     1  LIG1        0.0789
     35 H          -0.1904   10.3061    1.4875 H       1  LIG1        0.0660
     36 H          -0.5637    8.7066    2.1647 H       1  LIG1        0.0660
     37 H           0.8687    8.9163    1.1020 H       1  LIG1        0.0660
     38 C          -3.7881    8.6337   -0.6380 C.ar    1  LIG1        0.0505
     39 C          -4.0361    9.7326    0.1418 C.ar    1  LIG1        0.1086
     40 C          -5.1078   10.5512   -0.3688 C.ar    1  LIG1        0.1450
     41 C          -5.6384   10.0476   -1.5129 C.ar    1  LIG1        0.0193
     42 S          -4.8520    8.5959   -1.9942 S.2     1  LIG1       -0.0910
     43 H          -6.4578   10.4604   -2.0773 H       1  LIG1        0.0731
     44 N          -2.8683   10.2883    2.3792 N.1     1  LIG1       -0.1907
     45 C          -3.3698   10.0226    1.3808 C.1     1  LIG1        0.1040
     46 O          -5.5509   11.6702    0.2546 O.3     1  LIG1       -0.4933
     47 C          -4.6873   12.8030    0.1103 C.3     1  LIG1        0.0789
     48 H          -5.1835   13.6228    0.6216 H       1  LIG1        0.0660
     49 H          -3.7193   12.6066    0.5731 H       1  LIG1        0.0660
     50 H          -4.5591   13.0363   -0.9478 H       1  LIG1        0.0660
@<TRIPOS>BOND
     1    43    41    1
     2    25    22    1
     3    42    41   ar
     4    42    38   ar
     5    19    20    3
     6    23    22    1
     7    21    22    1
     8    21    16    1
     9    41    40   ar
    10    20    15    1
    11    22    24    1
    12    50    47    1
    13    16    15   ar
    14    16    17   ar
    15    15    14   ar
    16    30    29   ar
    17    30    26   ar
    18    38    29    1
    19    38    39   ar
    20    13    10    1
    21    29    28   ar
    22    40    39   ar
    23    40    46    1
    24    17    26    1
    25    17    18   ar
    26    26    27   ar
    27    14     4    1
    28    14    18   ar
    29     5     4   ar
    30     5     1   ar
    31    28    27   ar
    32    28    33    1
    33    27    32    1
    34    47    46    1
    35    47    49    1
    36    47    48    1
    37    39    45    1
    38    33    34    1
    39     4     3   ar
    40    11    10    1
    41    32    31    3
    42     1     6    1
    43     1     2   ar
    44    10     9    1
    45    10    12    1
    46     3     2   ar
    47     3     9    1
    48     2     8    1
    49    37    34    1
    50     8     7    3
    51    34    35    1
    52    34    36    1
    53    45    44    3
