@<TRIPOS>MOLECULE
mol_data/opt/m06hf/geoms/mol2/5dl5dl-5dl.out
 38 40 0 0 0
SMALL
GASTEIGER

@<TRIPOS>ATOM
      1 C          -1.8733   -1.9219    1.4002 C.ar    1  LIG1       -0.0027
      2 C          -0.9666   -2.0715    0.3895 C.ar    1  LIG1        0.1009
      3 C          -0.4869   -0.8063   -0.1167 C.ar    1  LIG1        0.1526
      4 C          -1.0627    0.2469    0.5423 C.ar    1  LIG1        0.0702
      5 S          -2.1729   -0.2826    1.7588 S.2     1  LIG1       -0.0910
      6 H          -2.3778   -2.7117    1.9333 H       1  LIG1        0.0708
      7 N          -0.3342   -4.3987   -0.5476 N.1     1  LIG1       -0.1907
      8 C          -0.6052   -3.3636   -0.1322 C.1     1  LIG1        0.1034
      9 O           0.3566   -0.6230   -1.1433 O.3     1  LIG1       -0.4927
     10 C           1.5268   -1.4549   -1.2097 C.3     1  LIG1        0.0789
     11 H           2.2327   -0.9079   -1.8276 H       1  LIG1        0.0660
     12 H           1.9439   -1.5904   -0.2118 H       1  LIG1        0.0660
     13 H           1.2787   -2.4119   -1.6642 H       1  LIG1        0.0660
     14 C          -0.8077    1.6642    0.2891 C.ar    1  LIG1        0.0511
     15 C           0.4122    2.2798    0.1661 C.ar    1  LIG1        0.1093
     16 C           0.3045    3.6968   -0.0809 C.ar    1  LIG1        0.1533
     17 C          -1.0019    4.1046   -0.1320 C.ar    1  LIG1        0.0707
     18 S          -2.0953    2.7826    0.0920 S.2     1  LIG1       -0.0820
     19 N           2.6422    0.9860    0.3675 N.1     1  LIG1       -0.1907
     20 C           1.6499    1.5567    0.2735 C.1     1  LIG1        0.1040
     21 O           1.3200    4.5488   -0.2948 O.3     1  LIG1       -0.4926
     22 C           2.4588    4.4741    0.5785 C.3     1  LIG1        0.0789
     23 H           2.9287    5.4512    0.5225 H       1  LIG1        0.0660
     24 H           2.1320    4.2852    1.6013 H       1  LIG1        0.0660
     25 H           3.1395    3.6971    0.2366 H       1  LIG1        0.0660
     26 C          -1.4746    5.4686   -0.3594 C.ar    1  LIG1        0.0505
     27 C          -1.0062    6.6232    0.2091 C.ar    1  LIG1        0.1086
     28 C          -1.7145    7.7960   -0.2400 C.ar    1  LIG1        0.1450
     29 C          -2.6934    7.4942   -1.1323 C.ar    1  LIG1        0.0193
     30 S          -2.7682    5.8049   -1.4479 S.2     1  LIG1       -0.0910
     31 H          -3.3742    8.1872   -1.5978 H       1  LIG1        0.0731
     32 N           0.8563    6.7612    1.9952 N.1     1  LIG1       -0.1907
     33 C           0.0320    6.6771    1.2002 C.1     1  LIG1        0.1040
     34 O          -1.4549    9.0425    0.2240 O.3     1  LIG1       -0.4933
     35 C          -0.2619    9.6328   -0.3042 C.3     1  LIG1        0.0789
     36 H          -0.1924   10.6184    0.1468 H       1  LIG1        0.0660
     37 H           0.6111    9.0371   -0.0338 H       1  LIG1        0.0660
     38 H          -0.3417    9.7150   -1.3895 H       1  LIG1        0.0660
@<TRIPOS>BOND
     1    11    10    1
     2    13    10    1
     3    31    29    1
     4    30    29   ar
     5    30    26   ar
     6    38    35    1
     7    10     9    1
     8    10    12    1
     9     9     3    1
    10    29    28   ar
    11     7     8    3
    12    26    17    1
    13    26    27   ar
    14    35    37    1
    15    35    36    1
    16    35    34    1
    17    21    16    1
    18    21    22    1
    19    28    27   ar
    20    28    34    1
    21     8     2    1
    22    17    16   ar
    23    17    18   ar
    24     3     2   ar
    25     3     4   ar
    26    16    15   ar
    27    18    14   ar
    28    15    20    1
    29    15    14   ar
    30    27    33    1
    31    25    22    1
    32    20    19    3
    33    14     4    1
    34     2     1   ar
    35    23    22    1
    36     4     5   ar
    37    22    24    1
    38    33    32    3
    39     1     5   ar
    40     1     6    1
