@<TRIPOS>MOLECULE
mol_data/opt/m06hf/geoms/mol2/5dl5dl5dl-.out
 38 40 0 0 0
SMALL
GASTEIGER

@<TRIPOS>ATOM
      1 C          -1.8855   -1.9178    1.3995 C.ar    1  LIG1       -0.0027
      2 C          -0.9734   -2.0700    0.3941 C.ar    1  LIG1        0.1009
      3 C          -0.4898   -0.8061   -0.1116 C.ar    1  LIG1        0.1526
      4 C          -1.0683    0.2487    0.5423 C.ar    1  LIG1        0.0702
      5 S          -2.1857   -0.2777    1.7535 S.2     1  LIG1       -0.0910
      6 H          -2.3937   -2.7062    1.9311 H       1  LIG1        0.0708
      7 N          -0.3379   -4.3994   -0.5355 N.1     1  LIG1       -0.1907
      8 C          -0.6102   -3.3633   -0.1234 C.1     1  LIG1        0.1034
      9 O           0.3596   -0.6253   -1.1338 O.3     1  LIG1       -0.4927
     10 C           1.5294   -1.4584   -1.1923 C.3     1  LIG1        0.0789
     11 H           2.2392   -0.9131   -1.8072 H       1  LIG1        0.0660
     12 H           1.9408   -1.5926   -0.1919 H       1  LIG1        0.0660
     13 H           1.2829   -2.4160   -1.6466 H       1  LIG1        0.0660
     14 C          -0.8106    1.6653    0.2881 C.ar    1  LIG1        0.0511
     15 C           0.4105    2.2797    0.1708 C.ar    1  LIG1        0.1093
     16 C           0.3054    3.6963   -0.0793 C.ar    1  LIG1        0.1533
     17 C          -1.0003    4.1052   -0.1384 C.ar    1  LIG1        0.0707
     18 S          -2.0961    2.7846    0.0818 S.2     1  LIG1       -0.0820
     19 N           2.6382    0.9842    0.3869 N.1     1  LIG1       -0.1907
     20 C           1.6470    1.5556    0.2863 C.1     1  LIG1        0.1040
     21 O           1.3229    4.5470   -0.2891 O.3     1  LIG1       -0.4926
     22 C           2.4568    4.4729    0.5907 C.3     1  LIG1        0.0789
     23 H           2.9279    5.4495    0.5356 H       1  LIG1        0.0660
     24 H           2.1241    4.2861    1.6121 H       1  LIG1        0.0660
     25 H           3.1386    3.6947    0.2539 H       1  LIG1        0.0660
     26 C          -1.4705    5.4692   -0.3708 C.ar    1  LIG1        0.0505
     27 C          -1.0042    6.6243    0.1984 C.ar    1  LIG1        0.1086
     28 C          -1.7090    7.7971   -0.2568 C.ar    1  LIG1        0.1450
     29 C          -2.6831    7.4945   -1.1540 C.ar    1  LIG1        0.0193
     30 S          -2.7578    5.8047   -1.4670 S.2     1  LIG1       -0.0910
     31 H          -3.3608    8.1874   -1.6244 H       1  LIG1        0.0731
     32 N           0.8484    6.7638    1.9945 N.1     1  LIG1       -0.1907
     33 C           0.0285    6.6791    1.1951 C.1     1  LIG1        0.1040
     34 O          -1.4509    9.0441    0.2065 O.3     1  LIG1       -0.4933
     35 C          -0.2544    9.6324   -0.3160 C.3     1  LIG1        0.0789
     36 H          -0.1866   10.6187    0.1337 H       1  LIG1        0.0660
     37 H           0.6166    9.0364   -0.0398 H       1  LIG1        0.0660
     38 H          -0.3281    9.7128   -1.4019 H       1  LIG1        0.0660
@<TRIPOS>BOND
     1    11    10    1
     2    13    10    1
     3    31    29    1
     4    30    29   ar
     5    30    26   ar
     6    38    35    1
     7    10     9    1
     8    10    12    1
     9    29    28   ar
    10     9     3    1
    11     7     8    3
    12    26    17    1
    13    26    27   ar
    14    35    37    1
    15    35    36    1
    16    35    34    1
    17    21    16    1
    18    21    22    1
    19    28    27   ar
    20    28    34    1
    21    17    16   ar
    22    17    18   ar
    23     8     2    1
    24     3     2   ar
    25     3     4   ar
    26    16    15   ar
    27    18    14   ar
    28    15    20    1
    29    15    14   ar
    30    27    33    1
    31    25    22    1
    32    20    19    3
    33    14     4    1
    34     2     1   ar
    35    23    22    1
    36     4     5   ar
    37    22    24    1
    38    33    32    3
    39     1     5   ar
    40     1     6    1
