@<TRIPOS>MOLECULE
mol_data/opt/m06hf/geoms/mol2/5dl5dl5dl5dl-.out
 50 53 0 0 0
SMALL
GASTEIGER

@<TRIPOS>ATOM
      1 C          -2.0920   -2.1951    0.3142 C.ar    1  LIG1       -0.0027
      2 C          -0.8365   -2.1528   -0.2219 C.ar    1  LIG1        0.1009
      3 C          -0.3039   -0.8116   -0.2798 C.ar    1  LIG1        0.1526
      4 C          -1.1935    0.1022    0.2218 C.ar    1  LIG1        0.0702
      5 S          -2.6584   -0.6489    0.7525 S.2     1  LIG1       -0.0910
      6 H          -2.7009   -3.0732    0.4586 H       1  LIG1        0.0708
      7 N           0.3381   -4.2761   -1.1183 N.1     1  LIG1       -0.1907
      8 C          -0.1752   -3.3310   -0.7182 C.1     1  LIG1        0.1034
      9 O           0.8687   -0.4372   -0.8104 O.3     1  LIG1       -0.4927
     10 C           2.0281   -1.2389   -0.5281 C.3     1  LIG1        0.0789
     11 H           2.8766   -0.5790   -0.6804 H       1  LIG1        0.0660
     12 H           2.0054   -1.5737    0.5092 H       1  LIG1        0.0660
     13 H           2.0704   -2.0850   -1.2110 H       1  LIG1        0.0660
     14 C          -0.9824    1.5451    0.2994 C.ar    1  LIG1        0.0511
     15 C           0.1520    2.1961    0.7170 C.ar    1  LIG1        0.1093
     16 C           0.0298    3.6314    0.6582 C.ar    1  LIG1        0.1533
     17 C          -1.2043    4.0179    0.2059 C.ar    1  LIG1        0.0708
     18 S          -2.2074    2.6560   -0.1660 S.2     1  LIG1       -0.0820
     19 N           2.1856    0.9548    1.7198 N.1     1  LIG1       -0.1907
     20 C           1.2853    1.4998    1.2602 C.1     1  LIG1        0.1040
     21 O           0.9466    4.5242    1.0574 O.3     1  LIG1       -0.4926
     22 C           2.3182    4.2992    0.6890 C.3     1  LIG1        0.0789
     23 H           2.7802    5.2820    0.6824 H       1  LIG1        0.0660
     24 H           2.7967    3.6523    1.4215 H       1  LIG1        0.0660
     25 H           2.3691    3.8646   -0.3095 H       1  LIG1        0.0660
     26 C          -1.6642    5.3915    0.0300 C.ar    1  LIG1        0.0511
     27 C          -0.9709    6.4318   -0.5370 C.ar    1  LIG1        0.1093
     28 C          -1.7242    7.6607   -0.5652 C.ar    1  LIG1        0.1533
     29 C          -2.9717    7.5059   -0.0228 C.ar    1  LIG1        0.0707
     30 S          -3.2286    5.8908    0.5414 S.2     1  LIG1       -0.0820
     31 N           1.3409    6.1298   -1.6534 N.1     1  LIG1       -0.1907
     32 C           0.3201    6.2606   -1.1440 C.1     1  LIG1        0.1040
     33 O          -1.3291    8.8144   -1.1269 O.3     1  LIG1       -0.4926
     34 C          -0.0109    9.2958   -0.8116 C.3     1  LIG1        0.0789
     35 H          -0.0377   10.3622   -1.0136 H       1  LIG1        0.0660
     36 H           0.2022    9.1294    0.2445 H       1  LIG1        0.0660
     37 H           0.7258    8.8023   -1.4423 H       1  LIG1        0.0660
     38 C          -4.0090    8.5308    0.0655 C.ar    1  LIG1        0.0505
     39 C          -3.8629    9.8444    0.4256 C.ar    1  LIG1        0.1086
     40 C          -5.1044   10.5775    0.3852 C.ar    1  LIG1        0.1450
     41 C          -6.1488    9.7981    0.0035 C.ar    1  LIG1        0.0193
     42 S          -5.6524    8.1832   -0.3211 S.2     1  LIG1       -0.0910
     43 H          -7.1789   10.1004   -0.0849 H       1  LIG1        0.0731
     44 N          -1.6723   10.9431    1.2450 N.1     1  LIG1       -0.1907
     45 C          -2.6327   10.4349    0.8735 C.1     1  LIG1        0.1040
     46 O          -5.2090   11.8833    0.7326 O.3     1  LIG1       -0.4933
     47 C          -4.6678   12.7921   -0.2326 C.3     1  LIG1        0.0789
     48 H          -4.8357   13.7872    0.1691 H       1  LIG1        0.0660
     49 H          -3.5989   12.6198   -0.3625 H       1  LIG1        0.0660
     50 H          -5.1880   12.6717   -1.1841 H       1  LIG1        0.0660
@<TRIPOS>BOND
     1    31    32    3
     2    37    34    1
     3    13    10    1
     4    50    47    1
     5    32    27    1
     6    33    34    1
     7    33    28    1
     8     7     8    3
     9    35    34    1
    10    34    36    1
    11     9    10    1
    12     9     3    1
    13     8     2    1
    14    11    10    1
    15    28    27   ar
    16    28    29   ar
    17    27    26   ar
    18    10    12    1
    19    49    47    1
    20    42    41   ar
    21    42    38   ar
    22    25    22    1
    23     3     2   ar
    24     3     4   ar
    25    47    48    1
    26    47    46    1
    27     2     1   ar
    28    18    17   ar
    29    18    14   ar
    30    43    41    1
    31    29    38    1
    32    29    30   ar
    33    41    40   ar
    34    26    17    1
    35    26    30   ar
    36    38    39   ar
    37    17    16   ar
    38     4    14    1
    39     4     5   ar
    40    14    15   ar
    41     1     6    1
    42     1     5   ar
    43    40    39   ar
    44    40    46    1
    45    39    45    1
    46    16    15   ar
    47    16    21    1
    48    23    22    1
    49    22    21    1
    50    22    24    1
    51    15    20    1
    52    45    44    3
    53    20    19    3
