@<TRIPOS>MOLECULE
mol_data/opt/m06hf/geoms/mol2/5dl5dl5dl-5dl-.out
 50 53 0 0 0
SMALL
GASTEIGER

@<TRIPOS>ATOM
      1 C          -1.3653   -2.0209    1.8525 C.ar    1  LIG1       -0.0027
      2 C          -0.8398   -2.1209    0.5964 C.ar    1  LIG1        0.1009
      3 C          -0.5245   -0.8326    0.0229 C.ar    1  LIG1        0.1526
      4 C          -0.8288    0.1868    0.8856 C.ar    1  LIG1        0.0702
      5 S          -1.4936   -0.4018    2.3714 S.2     1  LIG1       -0.0910
      6 H          -1.6837   -2.8355    2.4830 H       1  LIG1        0.0708
      7 N          -0.5815   -4.4029   -0.5941 N.1     1  LIG1       -0.1907
      8 C          -0.6891   -3.3872   -0.0711 C.1     1  LIG1        0.1034
      9 O          -0.0639   -0.5981   -1.2147 O.3     1  LIG1       -0.4927
     10 C           1.0046   -1.4258   -1.7045 C.3     1  LIG1        0.0789
     11 H           1.4652   -0.8547   -2.5049 H       1  LIG1        0.0660
     12 H           1.7332   -1.5972   -0.9117 H       1  LIG1        0.0660
     13 H           0.6063   -2.3652   -2.0826 H       1  LIG1        0.0660
     14 C          -0.6620    1.6146    0.6236 C.ar    1  LIG1        0.0511
     15 C           0.4418    2.2450    0.1047 C.ar    1  LIG1        0.1093
     16 C           0.2604    3.6691   -0.0360 C.ar    1  LIG1        0.1533
     17 C          -0.9781    4.0666    0.3938 C.ar    1  LIG1        0.0708
     18 S          -1.9303    2.7295    0.9403 S.2     1  LIG1       -0.0820
     19 N           2.6022    0.9650   -0.5094 N.1     1  LIG1       -0.1907
     20 C           1.6381    1.5298   -0.2448 C.1     1  LIG1        0.1040
     21 O           1.1304    4.5398   -0.5668 O.3     1  LIG1       -0.4926
     22 C           2.5196    4.4175   -0.2200 C.3     1  LIG1        0.0789
     23 H           2.9384    5.4106   -0.3527 H       1  LIG1        0.0660
     24 H           2.6190    4.1160    0.8231 H       1  LIG1        0.0660
     25 H           3.0045    3.7015   -0.8802 H       1  LIG1        0.0660
     26 C          -1.4918    5.4331    0.3833 C.ar    1  LIG1        0.0511
     27 C          -0.8359    6.5714    0.7804 C.ar    1  LIG1        0.1093
     28 C          -1.6355    7.7618    0.6287 C.ar    1  LIG1        0.1533
     29 C          -2.8766    7.4790    0.1252 C.ar    1  LIG1        0.0707
     30 S          -3.0734    5.7896   -0.1842 S.2     1  LIG1       -0.0820
     31 N           1.4966    6.5150    1.8935 N.1     1  LIG1       -0.1907
     32 C           0.4666    6.5373    1.3862 C.1     1  LIG1        0.1040
     33 O          -1.2851    9.0032    1.0004 O.3     1  LIG1       -0.4926
     34 C           0.0158    9.4778    0.6125 C.3     1  LIG1        0.0789
     35 H          -0.0541   10.5610    0.6368 H       1  LIG1        0.0660
     36 H           0.7660    9.1242    1.3169 H       1  LIG1        0.0660
     37 H           0.2432    9.1494   -0.4018 H       1  LIG1        0.0660
     38 C          -3.9475    8.4370   -0.1387 C.ar    1  LIG1        0.0505
     39 C          -3.8470    9.6692   -0.7277 C.ar    1  LIG1        0.1086
     40 C          -5.1198   10.3372   -0.8489 C.ar    1  LIG1        0.1450
     41 C          -6.1405    9.5925   -0.3516 C.ar    1  LIG1        0.0193
     42 S          -5.5849    8.0906    0.2769 S.2     1  LIG1       -0.0910
     43 H          -7.1847    9.8566   -0.3413 H       1  LIG1        0.0731
     44 N          -1.6836   10.7078   -1.6858 N.1     1  LIG1       -0.1907
     45 C          -2.6315   10.2279   -1.2502 C.1     1  LIG1        0.1040
     46 O          -5.2704   11.5491   -1.4364 O.3     1  LIG1       -0.4933
     47 C          -4.8393   12.6519   -0.6313 C.3     1  LIG1        0.0789
     48 H          -5.0624   13.5458   -1.2063 H       1  LIG1        0.0660
     49 H          -5.3898   12.6577    0.3110 H       1  LIG1        0.0660
     50 H          -3.7672   12.5889   -0.4411 H       1  LIG1        0.0660
@<TRIPOS>BOND
     1    11    10    1
     2    13    10    1
     3    10     9    1
     4    10    12    1
     5    44    45    3
     6    46    40    1
     7    46    47    1
     8    45    39    1
     9     9     3    1
    10    48    47    1
    11    25    22    1
    12    40    39   ar
    13    40    41   ar
    14    39    38   ar
    15    47    50    1
    16    47    49    1
    17     7     8    3
    18    21    22    1
    19    21    16    1
    20    19    20    3
    21    37    34    1
    22    23    22    1
    23    41    43    1
    24    41    42   ar
    25    20    15    1
    26    22    24    1
    27    30    29   ar
    28    30    26   ar
    29    38    29    1
    30    38    42   ar
    31     8     2    1
    32    16    15   ar
    33    16    17   ar
    34     3     2   ar
    35     3     4   ar
    36    15    14   ar
    37    29    28   ar
    38    26    17    1
    39    26    27   ar
    40    17    18   ar
    41     2     1   ar
    42    34    35    1
    43    34    33    1
    44    34    36    1
    45    14     4    1
    46    14    18   ar
    47    28    27   ar
    48    28    33    1
    49    27    32    1
    50     4     5   ar
    51    32    31    3
    52     1     5   ar
    53     1     6    1
