@<TRIPOS>MOLECULE
mol_data/opt/m06hf/geoms/mol2/5ea.out
 11 11 0 0 0
SMALL
GASTEIGER

@<TRIPOS>ATOM
      1 C          -2.0750   -1.6848   -0.0001 C.ar    1  LIG1       -0.0089
      2 C          -0.7093   -1.6668   -0.0002 C.ar    1  LIG1        0.0317
      3 C          -0.1797   -0.3266    0.0001 C.ar    1  LIG1       -0.0393
      4 C          -1.1599    0.6115    0.0004 C.ar    1  LIG1       -0.0231
      5 S          -2.7294   -0.1006    0.0004 S.2     1  LIG1       -0.1038
      6 H          -2.7134   -2.5529   -0.0002 H       1  LIG1        0.0706
      7 H          -1.0531    1.6838    0.0007 H       1  LIG1        0.0694
      8 C           0.1062   -2.8519   -0.0006 C.1     1  LIG1       -0.0691
      9 C           0.7980   -3.8342   -0.0009 C.1     1  LIG1       -0.1139
     10 H           1.4071   -4.7084   -0.0009 H       1  LIG1        0.1232
     11 H           0.8773   -0.1105    0.0000 H       1  LIG1        0.0635
@<TRIPOS>BOND
     1     9    10    1
     2     9     8    3
     3     8     2    1
     4     6     1    1
     5     2     1   ar
     6     2     3   ar
     7     1     5   ar
     8    11     3    1
     9     3     4   ar
    10     5     4   ar
    11     4     7    1
