@<TRIPOS>MOLECULE
mol_data/opt/m06hf/geoms/mol2/5ea5ea-5ea5ea-.out
 38 41 0 0 0
SMALL
GASTEIGER

@<TRIPOS>ATOM
      1 C          -2.2021   -1.8938    0.0010 C.ar    1  LIG1       -0.0083
      2 C          -0.8390   -1.9841   -0.0001 C.ar    1  LIG1        0.0323
      3 C          -0.2023   -0.6972   -0.0000 C.ar    1  LIG1       -0.0310
      4 C          -1.1025    0.3309    0.0012 C.ar    1  LIG1        0.0283
      5 S          -2.7324   -0.2668    0.0022 S.2     1  LIG1       -0.0949
      6 H          -2.9103   -2.7056    0.0012 H       1  LIG1        0.0706
      7 C          -0.1234   -3.2321   -0.0013 C.1     1  LIG1       -0.0691
      8 C           0.4794   -4.2712   -0.0022 C.1     1  LIG1       -0.1139
      9 H           1.0124   -5.1938   -0.0031 H       1  LIG1        0.1232
     10 H           0.8670   -0.5633   -0.0008 H       1  LIG1        0.0641
     11 C          -0.8346    1.7710    0.0017 C.ar    1  LIG1        0.0419
     12 C           0.3757    2.4275    0.0015 C.ar    1  LIG1        0.0405
     13 C           0.2401    3.8547    0.0021 C.ar    1  LIG1       -0.0304
     14 C          -1.0603    4.2659    0.0028 C.ar    1  LIG1        0.0289
     15 S          -2.1381    2.9041    0.0027 S.2     1  LIG1       -0.0859
     16 C           1.6670    1.7993    0.0007 C.1     1  LIG1       -0.0685
     17 C           2.7716    1.3244    0.0001 C.1     1  LIG1       -0.1139
     18 H           3.7492    0.9004   -0.0004 H       1  LIG1        0.1232
     19 H           1.0842    4.5248    0.0020 H       1  LIG1        0.0641
     20 C          -1.5820    5.6321    0.0036 C.ar    1  LIG1        0.0419
     21 C          -0.8885    6.8219    0.0040 C.ar    1  LIG1        0.0405
     22 C          -1.7455    7.9712    0.0048 C.ar    1  LIG1       -0.0304
     23 C          -3.0703    7.6461    0.0050 C.ar    1  LIG1        0.0289
     24 S          -3.2840    5.9256    0.0043 S.2     1  LIG1       -0.0859
     25 C           0.5418    6.9543    0.0036 C.1     1  LIG1       -0.0685
     26 C           1.7329    7.1204    0.0033 C.1     1  LIG1       -0.1139
     27 H           2.7889    7.2649    0.0032 H       1  LIG1        0.1232
     28 H          -1.3711    8.9819    0.0051 H       1  LIG1        0.0641
     29 C          -4.2304    8.5396    0.0058 C.ar    1  LIG1        0.0413
     30 C          -4.2581    9.9159    0.0063 C.ar    1  LIG1        0.0399
     31 C          -5.5961   10.4446    0.0070 C.ar    1  LIG1       -0.0387
     32 C          -6.5394    9.4713    0.0071 C.ar    1  LIG1       -0.0225
     33 S          -5.8360    7.9013    0.0063 S.2     1  LIG1       -0.0949
     34 H          -7.6112    9.5812    0.0076 H       1  LIG1        0.0694
     35 C          -3.1083   10.7761    0.0061 C.1     1  LIG1       -0.0685
     36 C          -2.1810   11.5419    0.0060 C.1     1  LIG1       -0.1139
     37 H          -1.3596   12.2208    0.0058 H       1  LIG1        0.1232
     38 H          -5.8022   11.5037    0.0075 H       1  LIG1        0.0635
@<TRIPOS>BOND
     1     9     8    1
     2     8     7    3
     3     7     2    1
     4    10     3    1
     5    18    17    1
     6     2     3   ar
     7     2     1   ar
     8     3     4   ar
     9    17    16    3
    10    16    12    1
    11     1     6    1
    12     1     5   ar
    13     4    11    1
    14     4     5   ar
    15    12    11   ar
    16    12    13   ar
    17    11    15   ar
    18    19    13    1
    19    13    14   ar
    20    15    14   ar
    21    14    20    1
    22    27    26    1
    23    26    25    3
    24    25    21    1
    25    20    21   ar
    26    20    24   ar
    27    21    22   ar
    28    24    23   ar
    29    22    23   ar
    30    22    28    1
    31    23    29    1
    32    37    36    1
    33    29    33   ar
    34    29    30   ar
    35    36    35    3
    36    35    30    1
    37    33    32   ar
    38    30    31   ar
    39    31    32   ar
    40    31    38    1
    41    32    34    1
