@<TRIPOS>MOLECULE
mol_data/opt/m06hf/geoms/mol2/5ea5ea5ea-.out
 29 31 0 0 0
SMALL
GASTEIGER

@<TRIPOS>ATOM
      1 C          -2.0076   -1.8936    0.1744 C.ar    1  LIG1       -0.0083
      2 C          -0.7141   -1.8507   -0.2655 C.ar    1  LIG1        0.0323
      3 C          -0.1909   -0.5134   -0.3005 C.ar    1  LIG1       -0.0310
      4 C          -1.1017    0.4100    0.1193 C.ar    1  LIG1        0.0283
      5 S          -2.6010   -0.3360    0.5672 S.2     1  LIG1       -0.0949
      6 H          -2.6267   -2.7684    0.2877 H       1  LIG1        0.0706
      7 C           0.0341   -3.0145   -0.6597 C.1     1  LIG1       -0.0691
      8 C           0.6685   -3.9794   -0.9900 C.1     1  LIG1       -0.1139
      9 H           1.2286   -4.8366   -1.2831 H       1  LIG1        0.1232
     10 H           0.8057   -0.2657   -0.6313 H       1  LIG1        0.0641
     11 C          -0.9156    1.8590    0.2212 C.ar    1  LIG1        0.0419
     12 C           0.2254    2.5377    0.5784 C.ar    1  LIG1        0.0405
     13 C           0.0492    3.9608    0.5731 C.ar    1  LIG1       -0.0304
     14 C          -1.2119    4.3323    0.2131 C.ar    1  LIG1        0.0289
     15 S          -2.1956    2.9527   -0.1502 S.2     1  LIG1       -0.0859
     16 C           1.4585    1.9039    0.9564 C.1     1  LIG1       -0.0685
     17 C           2.5007    1.3983    1.2777 C.1     1  LIG1       -0.1139
     18 H           3.4202    0.9464    1.5708 H       1  LIG1        0.1232
     19 H           0.8276    4.6575    0.8434 H       1  LIG1        0.0641
     20 C          -1.7459    5.6914    0.1035 C.ar    1  LIG1        0.0413
     21 C          -1.0721    6.8348   -0.2558 C.ar    1  LIG1        0.0399
     22 C          -1.9203    7.9965   -0.2597 C.ar    1  LIG1       -0.0387
     23 C          -3.1989    7.7049    0.0862 C.ar    1  LIG1       -0.0225
     24 S          -3.4036    6.0335    0.4409 S.2     1  LIG1       -0.0949
     25 H          -4.0375    8.3781    0.1589 H       1  LIG1        0.0694
     26 C           0.3176    6.8807   -0.6153 C.1     1  LIG1       -0.0685
     27 C           1.4785    6.9474   -0.9202 C.1     1  LIG1       -0.1139
     28 H           2.5060    6.9966   -1.1976 H       1  LIG1        0.1232
     29 H          -1.5633    8.9806   -0.5204 H       1  LIG1        0.0635
@<TRIPOS>BOND
     1     9     8    1
     2    28    27    1
     3     8     7    3
     4    27    26    3
     5     7     2    1
     6    10     3    1
     7    26    21    1
     8    29    22    1
     9     3     2   ar
    10     3     4   ar
    11     2     1   ar
    12    22    21   ar
    13    22    23   ar
    14    21    20   ar
    15    15    14   ar
    16    15    11   ar
    17    23    25    1
    18    23    24   ar
    19    20    14    1
    20    20    24   ar
    21     4    11    1
    22     4     5   ar
    23     1     6    1
    24     1     5   ar
    25    14    13   ar
    26    11    12   ar
    27    13    12   ar
    28    13    19    1
    29    12    16    1
    30    16    17    3
    31    17    18    1
