@<TRIPOS>MOLECULE
mol_data/opt/m06hf/geoms/mol2/5ea5ea.out
 20 21 0 0 0
SMALL
GASTEIGER

@<TRIPOS>ATOM
      1 C          -1.9748   -1.7769    0.5697 C.ar    1  LIG1       -0.0083
      2 C          -0.7330   -1.8007   -0.0003 C.ar    1  LIG1        0.0323
      3 C          -0.2328   -0.4830   -0.2814 C.ar    1  LIG1       -0.0310
      4 C          -1.1096    0.4936    0.0865 C.ar    1  LIG1        0.0282
      5 S          -2.5483   -0.1787    0.7854 S.2     1  LIG1       -0.0949
      6 H          -2.5672   -2.6251    0.8708 H       1  LIG1        0.0706
      7 C          -0.0167   -3.0121   -0.2983 C.1     1  LIG1       -0.0691
      8 C           0.5850   -4.0198   -0.5538 C.1     1  LIG1       -0.1139
      9 H           1.1143   -4.9157   -0.7813 H       1  LIG1        0.1232
     10 H           0.7240   -0.2890   -0.7413 H       1  LIG1        0.0641
     11 C          -0.9403    1.9433   -0.0470 C.ar    1  LIG1        0.0413
     12 C           0.2157    2.6732    0.0902 C.ar    1  LIG1        0.0399
     13 C           0.0071    4.0816   -0.1196 C.ar    1  LIG1       -0.0387
     14 C          -1.2863    4.3761   -0.4012 C.ar    1  LIG1       -0.0225
     15 S          -2.2735    2.9658   -0.4386 S.2     1  LIG1       -0.0949
     16 H          -1.7204    5.3434   -0.5940 H       1  LIG1        0.0694
     17 C           1.4933    2.1095    0.4269 C.1     1  LIG1       -0.0685
     18 C           2.5726    1.6612    0.7071 C.1     1  LIG1       -0.1139
     19 H           3.5250    1.2583    0.9624 H       1  LIG1        0.1232
     20 H           0.8020    4.8077   -0.0473 H       1  LIG1        0.0635
@<TRIPOS>BOND
     1     9     8    1
     2    10     3    1
     3    16    14    1
     4     8     7    3
     5    15    14   ar
     6    15    11   ar
     7    14    13   ar
     8     7     2    1
     9     3     2   ar
    10     3     4   ar
    11    13    20    1
    12    13    12   ar
    13    11     4    1
    14    11    12   ar
    15     2     1   ar
    16     4     5   ar
    17    12    17    1
    18    17    18    3
    19     1     5   ar
    20     1     6    1
    21    18    19    1
