@<TRIPOS>MOLECULE
mol_data/opt/m06hf/geoms/mol2/5ea5ea-5ea-5ea.out
 38 41 0 0 0
SMALL
GASTEIGER

@<TRIPOS>ATOM
      1 C          -2.0002   -1.9310   -0.2916 C.ar    1  LIG1       -0.0083
      2 C          -0.6836   -1.9327    0.0756 C.ar    1  LIG1        0.0323
      3 C          -0.1377   -0.6073    0.1668 C.ar    1  LIG1       -0.0310
      4 C          -1.0560    0.3533   -0.1408 C.ar    1  LIG1        0.0283
      5 S          -2.5903   -0.3446   -0.5480 S.2     1  LIG1       -0.0949
      6 H          -2.6393   -2.7880   -0.4264 H       1  LIG1        0.0706
      7 C           0.0649   -3.1307    0.3498 C.1     1  LIG1       -0.0691
      8 C           0.6955   -4.1276    0.5788 C.1     1  LIG1       -0.1139
      9 H           1.2530   -5.0124    0.7832 H       1  LIG1        0.1232
     10 H           0.8802   -0.3959    0.4546 H       1  LIG1        0.0641
     11 C          -0.8577    1.8039   -0.1621 C.ar    1  LIG1        0.0419
     12 C           0.2815    2.4959   -0.4999 C.ar    1  LIG1        0.0405
     13 C           0.1101    3.9179   -0.4230 C.ar    1  LIG1       -0.0304
     14 C          -1.1453    4.2744   -0.0309 C.ar    1  LIG1        0.0289
     15 S          -2.1298    2.8818    0.2798 S.2     1  LIG1       -0.0859
     16 C           1.5076    1.8798   -0.9252 C.1     1  LIG1       -0.0685
     17 C           2.5453    1.3896   -1.2816 C.1     1  LIG1       -0.1139
     18 H           3.4606    0.9495   -1.6040 H       1  LIG1        0.1232
     19 H           0.8863    4.6257   -0.6695 H       1  LIG1        0.0641
     20 C          -1.6757    5.6270    0.1401 C.ar    1  LIG1        0.0419
     21 C          -1.0042    6.7496    0.5647 C.ar    1  LIG1        0.0405
     22 C          -1.8428    7.9123    0.6122 C.ar    1  LIG1       -0.0304
     23 C          -3.1238    7.6510    0.2259 C.ar    1  LIG1        0.0289
     24 S          -3.3221    5.9911   -0.2270 S.2     1  LIG1       -0.0859
     25 C           0.3769    6.7651    0.9599 C.1     1  LIG1       -0.0685
     26 C           1.5301    6.8046    1.2965 C.1     1  LIG1       -0.1139
     27 H           2.5503    6.8325    1.6024 H       1  LIG1        0.1232
     28 H          -1.4992    8.8818    0.9381 H       1  LIG1        0.0641
     29 C          -4.2465    8.5888    0.1616 C.ar    1  LIG1        0.0413
     30 C          -4.2080    9.9306   -0.1349 C.ar    1  LIG1        0.0399
     31 C          -5.5105   10.5400   -0.1007 C.ar    1  LIG1       -0.0387
     32 C          -6.4882    9.6525    0.2104 C.ar    1  LIG1       -0.0225
     33 S          -5.8612    8.0744    0.4865 S.2     1  LIG1       -0.0949
     34 H          -7.5467    9.8343    0.2988 H       1  LIG1        0.0694
     35 C          -3.0134   10.6559   -0.4676 C.1     1  LIG1       -0.0685
     36 C          -2.0300   11.2880   -0.7493 C.1     1  LIG1       -0.1139
     37 H          -1.1569   11.8421   -1.0068 H       1  LIG1        0.1232
     38 H          -5.6723   11.5859   -0.3112 H       1  LIG1        0.0635
@<TRIPOS>BOND
     1    18    17    1
     2    17    16    3
     3    37    36    1
     4    16    12    1
     5    36    35    3
     6    19    13    1
     7     5     1   ar
     8     5     4   ar
     9    12    13   ar
    10    12    11   ar
    11    35    30    1
    12     6     1    1
    13    13    14   ar
    14    38    31    1
    15     1     2   ar
    16    24    20   ar
    17    24    23   ar
    18    11     4    1
    19    11    15   ar
    20     4     3   ar
    21    30    31   ar
    22    30    29   ar
    23    31    32   ar
    24    14    20    1
    25    14    15   ar
    26     2     3   ar
    27     2     7    1
    28    20    21   ar
    29    29    23    1
    30    29    33   ar
    31     3    10    1
    32    32    34    1
    33    32    33   ar
    34    23    22   ar
    35     7     8    3
    36    21    22   ar
    37    21    25    1
    38     8     9    1
    39    22    28    1
    40    25    26    3
    41    26    27    1
