@<TRIPOS>MOLECULE
mol_data/opt/m06hf/geoms/mol2/5ea5ea-.out
 20 21 0 0 0
SMALL
GASTEIGER

@<TRIPOS>ATOM
      1 C          -2.1293   -1.7909    0.0002 C.ar    1  LIG1       -0.0083
      2 C          -0.7640   -1.8132   -0.0002 C.ar    1  LIG1        0.0323
      3 C          -0.1916   -0.4956    0.0002 C.ar    1  LIG1       -0.0310
      4 C          -1.1410    0.4860    0.0008 C.ar    1  LIG1        0.0282
      5 S          -2.7395   -0.1914    0.0010 S.2     1  LIG1       -0.0949
      6 H          -2.7957   -2.6375    0.0001 H       1  LIG1        0.0706
      7 C           0.0112   -3.0251   -0.0008 C.1     1  LIG1       -0.0691
      8 C           0.6614   -4.0352   -0.0014 C.1     1  LIG1       -0.1139
      9 H           1.2328   -4.9341   -0.0019 H       1  LIG1        0.1232
     10 H           0.8694   -0.3072   -0.0001 H       1  LIG1        0.0641
     11 C          -0.9492    1.9402    0.0013 C.ar    1  LIG1        0.0413
     12 C           0.2251    2.6579    0.0015 C.ar    1  LIG1        0.0399
     13 C           0.0067    4.0808    0.0020 C.ar    1  LIG1       -0.0387
     14 C          -1.3085    4.4040    0.0021 C.ar    1  LIG1       -0.0225
     15 S          -2.3097    3.0044    0.0016 S.2     1  LIG1       -0.0949
     16 H          -1.7546    5.3846    0.0024 H       1  LIG1        0.0694
     17 C           1.5475    2.0989    0.0013 C.1     1  LIG1       -0.0685
     18 C           2.6759    1.6832    0.0012 C.1     1  LIG1       -0.1139
     19 H           3.6737    1.3096    0.0010 H       1  LIG1        0.1232
     20 H           0.8168    4.7936    0.0022 H       1  LIG1        0.0635
@<TRIPOS>BOND
     1     9     8    1
     2     8     7    3
     3     7     2    1
     4     2     3   ar
     5     2     1   ar
     6    10     3    1
     7     6     1    1
     8     3     4   ar
     9     1     5   ar
    10     4     5   ar
    11     4    11    1
    12    19    18    1
    13    18    17    3
    14    11    12   ar
    15    11    15   ar
    16    17    12    1
    17    12    13   ar
    18    15    14   ar
    19    13    14   ar
    20    13    20    1
    21    14    16    1
