@<TRIPOS>MOLECULE
mol_data/opt/m06hf/geoms/mol2/5ea5ea-5ea5ea.out
 38 41 0 0 0
SMALL
GASTEIGER

@<TRIPOS>ATOM
      1 C          -2.0082   -1.9334    0.2284 C.ar    1  LIG1       -0.0083
      2 C          -0.6921   -1.9324   -0.1404 C.ar    1  LIG1        0.0323
      3 C          -0.1446   -0.6067   -0.2164 C.ar    1  LIG1       -0.0310
      4 C          -1.0612    0.3513    0.1038 C.ar    1  LIG1        0.0283
      5 S          -2.5959   -0.3494    0.5044 S.2     1  LIG1       -0.0949
      6 H          -2.6483   -2.7911    0.3538 H       1  LIG1        0.0706
      7 C           0.0545   -3.1281   -0.4298 C.1     1  LIG1       -0.0691
      8 C           0.6835   -4.1229   -0.6715 C.1     1  LIG1       -0.1139
      9 H           1.2395   -5.0060   -0.8871 H       1  LIG1        0.1232
     10 H           0.8733   -0.3932   -0.5029 H       1  LIG1        0.0641
     11 C          -0.8610    1.8013    0.1422 C.ar    1  LIG1        0.0419
     12 C           0.2795    2.4878    0.4869 C.ar    1  LIG1        0.0405
     13 C           0.1099    3.9107    0.4271 C.ar    1  LIG1       -0.0304
     14 C          -1.1456    4.2736    0.0409 C.ar    1  LIG1        0.0289
     15 S          -2.1322    2.8861   -0.2852 S.2     1  LIG1       -0.0859
     16 C           1.5053    1.8650    0.9032 C.1     1  LIG1       -0.0685
     17 C           2.5429    1.3692    1.2525 C.1     1  LIG1       -0.1139
     18 H           3.4579    0.9241    1.5684 H       1  LIG1        0.1232
     19 H           0.8873    4.6145    0.6812 H       1  LIG1        0.0641
     20 C          -1.6743    5.6288   -0.1132 C.ar    1  LIG1        0.0419
     21 C          -1.0019    6.7555   -0.5253 C.ar    1  LIG1        0.0405
     22 C          -1.8390    7.9198   -0.5578 C.ar    1  LIG1       -0.0304
     23 C          -3.1199    7.6556   -0.1731 C.ar    1  LIG1        0.0289
     24 S          -3.3198    5.9907    0.2602 S.2     1  LIG1       -0.0859
     25 C           0.3788    6.7739   -0.9220 C.1     1  LIG1       -0.0685
     26 C           1.5316    6.8160   -1.2594 C.1     1  LIG1       -0.1139
     27 H           2.5514    6.8462   -1.5662 H       1  LIG1        0.1232
     28 H          -1.4946    8.8927   -0.8725 H       1  LIG1        0.0641
     29 C          -4.2413    8.5940   -0.0962 C.ar    1  LIG1        0.0413
     30 C          -4.2007    9.9321    0.2163 C.ar    1  LIG1        0.0399
     31 C          -5.5024   10.5436    0.1910 C.ar    1  LIG1       -0.0387
     32 C          -6.4817    9.6611   -0.1294 C.ar    1  LIG1       -0.0225
     33 S          -5.8570    8.0856   -0.4252 S.2     1  LIG1       -0.0949
     34 H          -7.5400    9.8453   -0.2143 H       1  LIG1        0.0694
     35 C          -3.0047   10.6518    0.5561 C.1     1  LIG1       -0.0685
     36 C          -2.0201   11.2792    0.8441 C.1     1  LIG1       -0.1139
     37 H          -1.1459   11.8291    1.1071 H       1  LIG1        0.1232
     38 H          -5.6626   11.5871    0.4142 H       1  LIG1        0.0635
@<TRIPOS>BOND
     1    27    26    1
     2    26    25    3
     3    25    21    1
     4     9     8    1
     5    28    22    1
     6     8     7    3
     7    22    21   ar
     8    22    23   ar
     9    21    20   ar
    10    10     3    1
    11     7     2    1
    12    33    32   ar
    13    33    29   ar
    14    15    14   ar
    15    15    11   ar
    16     3     2   ar
    17     3     4   ar
    18    34    32    1
    19    23    29    1
    20    23    24   ar
    21     2     1   ar
    22    32    31   ar
    23    20    14    1
    24    20    24   ar
    25    29    30   ar
    26    14    13   ar
    27     4    11    1
    28     4     5   ar
    29    11    12   ar
    30    31    30   ar
    31    31    38    1
    32    30    35    1
    33     1     6    1
    34     1     5   ar
    35    13    12   ar
    36    13    19    1
    37    12    16    1
    38    35    36    3
    39    36    37    1
    40    16    17    3
    41    17    18    1
