@<TRIPOS>MOLECULE
mol_data/opt/m06hf/geoms/mol2/5ea5ea-5ea.out
 29 31 0 0 0
SMALL
GASTEIGER

@<TRIPOS>ATOM
      1 C          -2.1655   -1.8700    0.0011 C.ar    1  LIG1       -0.0083
      2 C          -0.8008   -1.9231   -0.0004 C.ar    1  LIG1        0.0323
      3 C          -0.1977   -0.6196   -0.0001 C.ar    1  LIG1       -0.0310
      4 C          -1.1227    0.3850    0.0016 C.ar    1  LIG1        0.0283
      5 S          -2.7393   -0.2567    0.0030 S.2     1  LIG1       -0.0949
      6 H          -2.8511   -2.7013    0.0012 H       1  LIG1        0.0706
      7 C          -0.0512   -3.1510   -0.0022 C.1     1  LIG1       -0.0691
      8 C           0.5826   -4.1712   -0.0035 C.1     1  LIG1       -0.1139
      9 H           1.1431   -5.0767   -0.0048 H       1  LIG1        0.1232
     10 H           0.8679   -0.4587   -0.0013 H       1  LIG1        0.0641
     11 C          -0.8922    1.8310    0.0023 C.ar    1  LIG1        0.0419
     12 C           0.3010    2.5173    0.0024 C.ar    1  LIG1        0.0405
     13 C           0.1310    3.9407    0.0029 C.ar    1  LIG1       -0.0304
     14 C          -1.1794    4.3201    0.0031 C.ar    1  LIG1        0.0289
     15 S          -2.2213    2.9331    0.0027 S.2     1  LIG1       -0.0859
     16 C           1.6077    1.9211    0.0022 C.1     1  LIG1       -0.0685
     17 C           2.7237    1.4735    0.0021 C.1     1  LIG1       -0.1139
     18 H           3.7124    1.0765    0.0020 H       1  LIG1        0.1232
     19 H           0.9607    4.6284    0.0030 H       1  LIG1        0.0641
     20 C          -1.7377    5.6736    0.0034 C.ar    1  LIG1        0.0413
     21 C          -1.0746    6.8799    0.0034 C.ar    1  LIG1        0.0399
     22 C          -1.9696    8.0069    0.0037 C.ar    1  LIG1       -0.0387
     23 C          -3.2728    7.6363    0.0039 C.ar    1  LIG1       -0.0225
     24 S          -3.4497    5.9241    0.0039 S.2     1  LIG1       -0.0949
     25 H          -4.1460    8.2677    0.0042 H       1  LIG1        0.0694
     26 C           0.3506    7.0518    0.0030 C.1     1  LIG1       -0.0685
     27 C           1.5366    7.2516    0.0027 C.1     1  LIG1       -0.1139
     28 H           2.5879    7.4270    0.0025 H       1  LIG1        0.1232
     29 H          -1.6192    9.0273    0.0037 H       1  LIG1        0.0635
@<TRIPOS>BOND
     1     9     8    1
     2     8     7    3
     3     7     2    1
     4    10     3    1
     5     2     3   ar
     6     2     1   ar
     7     3     4   ar
     8     1     6    1
     9     1     5   ar
    10     4    11    1
    11     4     5   ar
    12    18    17    1
    13    17    16    3
    14    16    12    1
    15    11    12   ar
    16    11    15   ar
    17    12    13   ar
    18    28    27    1
    19    15    14   ar
    20    27    26    3
    21    13    19    1
    22    13    14   ar
    23    26    21    1
    24    14    20    1
    25    21    20   ar
    26    21    22   ar
    27    20    24   ar
    28    29    22    1
    29    22    23   ar
    30    24    23   ar
    31    23    25    1
