@<TRIPOS>MOLECULE
mol_data/opt/m06hf/geoms/mol2/5ea5ea5ea.out
 29 31 0 0 0
SMALL
GASTEIGER

@<TRIPOS>ATOM
      1 C          -2.0109   -1.8904    0.2181 C.ar    1  LIG1       -0.0083
      2 C          -0.7196   -1.8528   -0.2286 C.ar    1  LIG1        0.0323
      3 C          -0.1954   -0.5164   -0.2787 C.ar    1  LIG1       -0.0310
      4 C          -1.1033    0.4118    0.1370 C.ar    1  LIG1        0.0283
      5 S          -2.6012   -0.3285    0.5988 S.2     1  LIG1       -0.0949
      6 H          -2.6302   -2.7635    0.3428 H       1  LIG1        0.0706
      7 C           0.0256   -3.0209   -0.6156 C.1     1  LIG1       -0.0691
      8 C           0.6576   -3.9895   -0.9399 C.1     1  LIG1       -0.1139
      9 H           1.2154   -4.8498   -1.2278 H       1  LIG1        0.1232
     10 H           0.7999   -0.2728   -0.6166 H       1  LIG1        0.0641
     11 C          -0.9153    1.8615    0.2245 C.ar    1  LIG1        0.0419
     12 C           0.2280    2.5423    0.5700 C.ar    1  LIG1        0.0405
     13 C           0.0532    3.9655    0.5524 C.ar    1  LIG1       -0.0304
     14 C          -1.2093    4.3349    0.1950 C.ar    1  LIG1        0.0289
     15 S          -2.1959    2.9530   -0.1511 S.2     1  LIG1       -0.0859
     16 C           1.4623    1.9107    0.9478 C.1     1  LIG1       -0.0685
     17 C           2.5055    1.4071    1.2689 C.1     1  LIG1       -0.1139
     18 H           3.4259    0.9570    1.5619 H       1  LIG1        0.1232
     19 H           0.8335    4.6639    0.8127 H       1  LIG1        0.0641
     20 C          -1.7425    5.6934    0.0755 C.ar    1  LIG1        0.0413
     21 C          -1.0694    6.8327   -0.2978 C.ar    1  LIG1        0.0399
     22 C          -1.9164    7.9953   -0.3084 C.ar    1  LIG1       -0.0387
     23 C          -3.1936    7.7082    0.0464 C.ar    1  LIG1       -0.0225
     24 S          -3.3981    6.0403    0.4179 S.2     1  LIG1       -0.0949
     25 H          -4.0312    8.3828    0.1168 H       1  LIG1        0.0694
     26 C           0.3185    6.8739   -0.6647 C.1     1  LIG1       -0.0685
     27 C           1.4780    6.9363   -0.9757 C.1     1  LIG1       -0.1139
     28 H           2.5042    6.9817   -1.2586 H       1  LIG1        0.1232
     29 H          -1.5598    8.9765   -0.5801 H       1  LIG1        0.0635
@<TRIPOS>BOND
     1    28    27    1
     2     9     8    1
     3    27    26    3
     4     8     7    3
     5    26    21    1
     6    10     3    1
     7     7     2    1
     8    29    22    1
     9    22    21   ar
    10    22    23   ar
    11    21    20   ar
    12     3     2   ar
    13     3     4   ar
    14     2     1   ar
    15    15    14   ar
    16    15    11   ar
    17    23    25    1
    18    23    24   ar
    19    20    14    1
    20    20    24   ar
    21     4    11    1
    22     4     5   ar
    23    14    13   ar
    24     1     6    1
    25     1     5   ar
    26    11    12   ar
    27    13    12   ar
    28    13    19    1
    29    12    16    1
    30    16    17    3
    31    17    18    1
