@<TRIPOS>MOLECULE
mol_data/opt/m06hf/geoms/mol2/5ea5ea5ea-5ea-.out
 38 41 0 0 0
SMALL
GASTEIGER

@<TRIPOS>ATOM
      1 C          -2.0218   -1.8751   -0.3710 C.ar    1  LIG1       -0.0083
      2 C          -0.6689   -1.8501   -0.5639 C.ar    1  LIG1        0.0323
      3 C          -0.1140   -0.5362   -0.3925 C.ar    1  LIG1       -0.0310
      4 C          -1.0624    0.3894   -0.0705 C.ar    1  LIG1        0.0283
      5 S          -2.6381   -0.3294    0.0306 S.2     1  LIG1       -0.0949
      6 H          -2.6745   -2.7293   -0.4449 H       1  LIG1        0.0706
      7 C           0.1096   -3.0090   -0.9125 C.1     1  LIG1       -0.0691
      8 C           0.7703   -3.9690   -1.2049 C.1     1  LIG1       -0.1139
      9 H           1.3548   -4.8207   -1.4656 H       1  LIG1        0.1232
     10 H           0.9335   -0.3075   -0.5150 H       1  LIG1        0.0641
     11 C          -0.8658    1.8183    0.1796 C.ar    1  LIG1        0.0419
     12 C           0.2253    2.4346    0.7466 C.ar    1  LIG1        0.0405
     13 C           0.0725    3.8575    0.8399 C.ar    1  LIG1       -0.0304
     14 C          -1.1227    4.2900    0.3468 C.ar    1  LIG1        0.0289
     15 S          -2.0672    2.9725   -0.2641 S.2     1  LIG1       -0.0859
     16 C           1.3854    1.7400    1.2316 C.1     1  LIG1       -0.0685
     17 C           2.3656    1.1793    1.6430 C.1     1  LIG1       -0.1139
     18 H           3.2282    0.6748    2.0127 H       1  LIG1        0.1232
     19 H           0.8161    4.5089    1.2721 H       1  LIG1        0.0641
     20 C          -1.6187    5.6655    0.2906 C.ar    1  LIG1        0.0419
     21 C          -0.8920    6.8170    0.0963 C.ar    1  LIG1        0.0405
     22 C          -1.7085    7.9966    0.1103 C.ar    1  LIG1       -0.0304
     23 C          -3.0291    7.7185    0.2994 C.ar    1  LIG1        0.0289
     24 S          -3.2978    6.0158    0.4772 S.2     1  LIG1       -0.0859
     25 C           0.5286    6.8518   -0.1134 C.1     1  LIG1       -0.0685
     26 C           1.7158    6.9069   -0.2916 C.1     1  LIG1       -0.1139
     27 H           2.7674    6.9490   -0.4576 H       1  LIG1        0.1232
     28 H          -1.3168    8.9939   -0.0171 H       1  LIG1        0.0641
     29 C          -4.1427    8.6680    0.3594 C.ar    1  LIG1        0.0413
     30 C          -4.2853    9.8431   -0.3392 C.ar    1  LIG1        0.0399
     31 C          -5.5135   10.5238   -0.0275 C.ar    1  LIG1       -0.0387
     32 C          -6.2600    9.8513    0.8840 C.ar    1  LIG1       -0.0225
     33 S          -5.4934    8.3994    1.3976 S.2     1  LIG1       -0.0949
     34 H          -7.2190   10.1275    1.2903 H       1  LIG1        0.0694
     35 C          -3.3356   10.3397   -1.2954 C.1     1  LIG1       -0.0685
     36 C          -2.5565   10.7801   -2.0978 C.1     1  LIG1       -0.1139
     37 H          -1.8649   11.1622   -2.8128 H       1  LIG1        0.1232
     38 H          -5.7954   11.4597   -0.4845 H       1  LIG1        0.0635
@<TRIPOS>BOND
     1    37    36    1
     2    36    35    3
     3     9     8    1
     4    35    30    1
     5     8     7    3
     6     7     2    1
     7     2     3   ar
     8     2     1   ar
     9    10     3    1
    10    38    31    1
    11    27    26    1
    12     6     1    1
    13     3     4   ar
    14     1     5   ar
    15    30    31   ar
    16    30    29   ar
    17    26    25    3
    18    15    11   ar
    19    15    14   ar
    20    25    21    1
    21     4     5   ar
    22     4    11    1
    23    31    32   ar
    24    28    22    1
    25    21    22   ar
    26    21    20   ar
    27    22    23   ar
    28    11    12   ar
    29    20    14    1
    30    20    24   ar
    31    23    29    1
    32    23    24   ar
    33    14    13   ar
    34    29    33   ar
    35    12    13   ar
    36    12    16    1
    37    13    19    1
    38    32    34    1
    39    32    33   ar
    40    16    17    3
    41    17    18    1
