@<TRIPOS>MOLECULE
mol_data/opt/m06hf/geoms/mol2/5ea5ea5ea5ea-.out
 38 41 0 0 0
SMALL
GASTEIGER

@<TRIPOS>ATOM
      1 C          -2.0277   -1.9339    0.1252 C.ar    1  LIG1       -0.0083
      2 C          -0.6955   -1.9324   -0.1806 C.ar    1  LIG1        0.0323
      3 C          -0.1430   -0.6071   -0.2191 C.ar    1  LIG1       -0.0310
      4 C          -1.0723    0.3499    0.0654 C.ar    1  LIG1        0.0283
      5 S          -2.6254   -0.3512    0.3867 S.2     1  LIG1       -0.0949
      6 H          -2.6743   -2.7914    0.2127 H       1  LIG1        0.0706
      7 C           0.0621   -3.1269   -0.4445 C.1     1  LIG1       -0.0691
      8 C           0.7004   -4.1209   -0.6646 C.1     1  LIG1       -0.1139
      9 H           1.2647   -5.0032   -0.8612 H       1  LIG1        0.1232
     10 H           0.8877   -0.3932   -0.4551 H       1  LIG1        0.0641
     11 C          -0.8720    1.7991    0.1258 C.ar    1  LIG1        0.0419
     12 C           0.2520    2.4804    0.5301 C.ar    1  LIG1        0.0405
     13 C           0.0876    3.9042    0.4746 C.ar    1  LIG1       -0.0304
     14 C          -1.1476    4.2727    0.0324 C.ar    1  LIG1        0.0289
     15 S          -2.1197    2.8900   -0.3522 S.2     1  LIG1       -0.0859
     16 C           1.4557    1.8517    0.9988 C.1     1  LIG1       -0.0685
     17 C           2.4747    1.3510    1.3927 C.1     1  LIG1       -0.1139
     18 H           3.3730    0.9015    1.7479 H       1  LIG1        0.1232
     19 H           0.8531    4.6043    0.7714 H       1  LIG1        0.0641
     20 C          -1.6664    5.6302   -0.1350 C.ar    1  LIG1        0.0419
     21 C          -0.9734    6.7591   -0.5049 C.ar    1  LIG1        0.0405
     22 C          -1.8062    7.9253   -0.5671 C.ar    1  LIG1       -0.0304
     23 C          -3.1043    7.6603   -0.2459 C.ar    1  LIG1        0.0289
     24 S          -3.3272    5.9921    0.1630 S.2     1  LIG1       -0.0859
     25 C           0.4245    6.7783   -0.8354 C.1     1  LIG1       -0.0685
     26 C           1.5922    6.8210   -1.1174 C.1     1  LIG1       -0.1139
     27 H           2.6255    6.8518   -1.3751 H       1  LIG1        0.1232
     28 H          -1.4458    8.9002   -0.8567 H       1  LIG1        0.0641
     29 C          -4.2267    8.6001   -0.2143 C.ar    1  LIG1        0.0413
     30 C          -4.1989    9.9355    0.1113 C.ar    1  LIG1        0.0399
     31 C          -5.4971   10.5496    0.0294 C.ar    1  LIG1       -0.0387
     32 C          -6.4614    9.6718   -0.3447 C.ar    1  LIG1       -0.0225
     33 S          -5.8258    8.0977   -0.6240 S.2     1  LIG1       -0.0949
     34 H          -7.5142    9.8588   -0.4782 H       1  LIG1        0.0694
     35 C          -3.0193   10.6499    0.5137 C.1     1  LIG1       -0.0685
     36 C          -2.0487   11.2730    0.8535 C.1     1  LIG1       -0.1139
     37 H          -1.1871   11.8189    1.1625 H       1  LIG1        0.1232
     38 H          -5.6661   11.5915    0.2538 H       1  LIG1        0.0635
@<TRIPOS>BOND
     1    27    26    1
     2    26    25    3
     3     9     8    1
     4    28    22    1
     5    25    21    1
     6     8     7    3
     7    33    32   ar
     8    33    29   ar
     9    22    21   ar
    10    22    23   ar
    11    21    20   ar
    12    34    32    1
    13    10     3    1
    14     7     2    1
    15    15    14   ar
    16    15    11   ar
    17    32    31   ar
    18    23    29    1
    19    23    24   ar
    20     3     2   ar
    21     3     4   ar
    22    29    30   ar
    23     2     1   ar
    24    20    14    1
    25    20    24   ar
    26    31    30   ar
    27    31    38    1
    28    14    13   ar
    29     4    11    1
    30     4     5   ar
    31    30    35    1
    32     1     6    1
    33     1     5   ar
    34    11    12   ar
    35    13    12   ar
    36    13    19    1
    37    35    36    3
    38    12    16    1
    39    36    37    1
    40    16    17    3
    41    17    18    1
