@<TRIPOS>MOLECULE
mol_data/opt/m06hf/geoms/mol2/5ea5ea5ea5ea.out
 38 41 0 0 0
SMALL
GASTEIGER

@<TRIPOS>ATOM
      1 C          -2.0111   -1.9323    0.2352 C.ar    1  LIG1       -0.0083
      2 C          -0.6925   -1.9332   -0.1247 C.ar    1  LIG1        0.0323
      3 C          -0.1442   -0.6079   -0.2026 C.ar    1  LIG1       -0.0310
      4 C          -1.0628    0.3517    0.1072 C.ar    1  LIG1        0.0283
      5 S          -2.6003   -0.3470    0.5005 S.2     1  LIG1       -0.0949
      6 H          -2.6522   -2.7893    0.3599 H       1  LIG1        0.0706
      7 C           0.0557   -3.1302   -0.4039 C.1     1  LIG1       -0.0691
      8 C           0.6861   -4.1262   -0.6370 C.1     1  LIG1       -0.1139
      9 H           1.2434   -5.0103   -0.8451 H       1  LIG1        0.1232
     10 H           0.8756   -0.3958   -0.4831 H       1  LIG1        0.0641
     11 C          -0.8625    1.8018    0.1408 C.ar    1  LIG1        0.0419
     12 C           0.2759    2.4895    0.4903 C.ar    1  LIG1        0.0405
     13 C           0.1070    3.9122    0.4233 C.ar    1  LIG1       -0.0304
     14 C          -1.1457    4.2737    0.0270 C.ar    1  LIG1        0.0289
     15 S          -2.1305    2.8850   -0.2999 S.2     1  LIG1       -0.0859
     16 C           1.4987    1.8682    0.9176 C.1     1  LIG1       -0.0685
     17 C           2.5337    1.3737    1.2761 C.1     1  LIG1       -0.1139
     18 H           3.4464    0.9298    1.6002 H       1  LIG1        0.1232
     19 H           0.8828    4.6169    0.6796 H       1  LIG1        0.0641
     20 C          -1.6731    5.6283   -0.1365 C.ar    1  LIG1        0.0419
     21 C          -0.9976    6.7531   -0.5488 C.ar    1  LIG1        0.0405
     22 C          -1.8342    7.9175   -0.5920 C.ar    1  LIG1       -0.0304
     23 C          -3.1177    7.6552   -0.2149 C.ar    1  LIG1        0.0289
     24 S          -3.3210    5.9921    0.2241 S.2     1  LIG1       -0.0859
     25 C           0.3857    6.7696   -0.9362 C.1     1  LIG1       -0.0685
     26 C           1.5408    6.8099   -1.2660 C.1     1  LIG1       -0.1139
     27 H           2.5627    6.8386   -1.5659 H       1  LIG1        0.1232
     28 H          -1.4874    8.8889   -0.9085 H       1  LIG1        0.0641
     29 C          -4.2394    8.5941   -0.1497 C.ar    1  LIG1        0.0413
     30 C          -4.2006    9.9336    0.1574 C.ar    1  LIG1        0.0399
     31 C          -5.5019   10.5452    0.1206 C.ar    1  LIG1       -0.0387
     32 C          -6.4792    9.6616   -0.2027 C.ar    1  LIG1       -0.0225
     33 S          -5.8530    8.0847   -0.4875 S.2     1  LIG1       -0.0949
     34 H          -7.5369    9.8457   -0.2957 H       1  LIG1        0.0694
     35 C          -3.0067   10.6545    0.5023 C.1     1  LIG1       -0.0685
     36 C          -2.0240   11.2829    0.7944 C.1     1  LIG1       -0.1139
     37 H          -1.1515   11.8337    1.0610 H       1  LIG1        0.1232
     38 H          -5.6634   11.5897    0.3382 H       1  LIG1        0.0635
@<TRIPOS>BOND
     1    27    26    1
     2    26    25    3
     3    25    21    1
     4    28    22    1
     5     9     8    1
     6     8     7    3
     7    22    21   ar
     8    22    23   ar
     9    21    20   ar
    10    33    32   ar
    11    33    29   ar
    12    10     3    1
    13     7     2    1
    14    15    14   ar
    15    15    11   ar
    16    34    32    1
    17    23    29    1
    18    23    24   ar
    19    32    31   ar
    20     3     2   ar
    21     3     4   ar
    22    29    30   ar
    23    20    14    1
    24    20    24   ar
    25     2     1   ar
    26    14    13   ar
    27     4    11    1
    28     4     5   ar
    29    31    30   ar
    30    31    38    1
    31    11    12   ar
    32    30    35    1
    33     1     6    1
    34     1     5   ar
    35    13    12   ar
    36    13    19    1
    37    12    16    1
    38    35    36    3
    39    36    37    1
    40    16    17    3
    41    17    18    1
