@<TRIPOS>MOLECULE
mol_data/opt/m06hf/geoms/mol2/5ea5ea-5ea-5ea-.out
 38 41 0 0 0
SMALL
GASTEIGER

@<TRIPOS>ATOM
      1 C          -2.0099   -1.9313   -0.2697 C.ar    1  LIG1       -0.0083
      2 C          -0.6970   -1.9338    0.1107 C.ar    1  LIG1        0.0323
      3 C          -0.1495   -0.6089    0.2006 C.ar    1  LIG1       -0.0310
      4 C          -1.0627    0.3518   -0.1209 C.ar    1  LIG1        0.0283
      5 S          -2.5942   -0.3451   -0.5400 S.2     1  LIG1       -0.0949
      6 H          -2.6493   -2.7877   -0.4067 H       1  LIG1        0.0706
      7 C           0.0463   -3.1318    0.3984 C.1     1  LIG1       -0.0691
      8 C           0.6725   -4.1287    0.6387 C.1     1  LIG1       -0.1139
      9 H           1.2262   -5.0136    0.8531 H       1  LIG1        0.1232
     10 H           0.8660   -0.3981    0.4976 H       1  LIG1        0.0641
     11 C          -0.8613    1.8020   -0.1476 C.ar    1  LIG1        0.0419
     12 C           0.2826    2.4901   -0.4774 C.ar    1  LIG1        0.0405
     13 C           0.1133    3.9127   -0.4092 C.ar    1  LIG1       -0.0304
     14 C          -1.1453    4.2737   -0.0316 C.ar    1  LIG1        0.0289
     15 S          -2.1356    2.8845    0.2762 S.2     1  LIG1       -0.0859
     16 C           1.5117    1.8694   -0.8872 C.1     1  LIG1       -0.0685
     17 C           2.5520    1.3754   -1.2308 C.1     1  LIG1       -0.1139
     18 H           3.4695    0.9319   -1.5417 H       1  LIG1        0.1232
     19 H           0.8933    4.6178   -0.6516 H       1  LIG1        0.0641
     20 C          -1.6747    5.6281    0.1272 C.ar    1  LIG1        0.0419
     21 C          -1.0052    6.7515    0.5530 C.ar    1  LIG1        0.0405
     22 C          -1.8419    7.9161    0.5862 C.ar    1  LIG1       -0.0304
     23 C          -3.1195    7.6553    0.1884 C.ar    1  LIG1        0.0289
     24 S          -3.3166    5.9936   -0.2581 S.2     1  LIG1       -0.0859
     25 C           0.3719    6.7663    0.9620 C.1     1  LIG1       -0.0685
     26 C           1.5217    6.8053    1.3099 C.1     1  LIG1       -0.1139
     27 H           2.5388    6.8327    1.6258 H       1  LIG1        0.1232
     28 H          -1.4997    8.8866    0.9107 H       1  LIG1        0.0641
     29 C          -4.2396    8.5950    0.1082 C.ar    1  LIG1        0.0413
     30 C          -4.1955    9.9352   -0.1947 C.ar    1  LIG1        0.0399
     31 C          -5.4971   10.5473   -0.1766 C.ar    1  LIG1       -0.0387
     32 C          -6.4796    9.6633    0.1291 C.ar    1  LIG1       -0.0225
     33 S          -5.8585    8.0854    0.4194 S.2     1  LIG1       -0.0949
     34 H          -7.5386    9.8476    0.2059 H       1  LIG1        0.0694
     35 C          -2.9961   10.6565   -0.5190 C.1     1  LIG1       -0.0685
     36 C          -2.0088   11.2852   -0.7940 C.1     1  LIG1       -0.1139
     37 H          -1.1319   11.8364   -1.0454 H       1  LIG1        0.1232
     38 H          -5.6547   11.5925   -0.3940 H       1  LIG1        0.0635
@<TRIPOS>BOND
     1    18    17    1
     2    17    16    3
     3    37    36    1
     4    16    12    1
     5    36    35    3
     6    19    13    1
     7     5     1   ar
     8     5     4   ar
     9    35    30    1
    10    12    13   ar
    11    12    11   ar
    12    13    14   ar
    13     6     1    1
    14    38    31    1
    15     1     2   ar
    16    24    20   ar
    17    24    23   ar
    18    30    31   ar
    19    30    29   ar
    20    31    32   ar
    21    11     4    1
    22    11    15   ar
    23     4     3   ar
    24    14    20    1
    25    14    15   ar
    26    29    23    1
    27    29    33   ar
    28     2     3   ar
    29     2     7    1
    30    20    21   ar
    31    32    34    1
    32    32    33   ar
    33    23    22   ar
    34     3    10    1
    35     7     8    3
    36    21    22   ar
    37    21    25    1
    38    22    28    1
    39     8     9    1
    40    25    26    3
    41    26    27    1
