@<TRIPOS>MOLECULE
mol_data/opt/m06hf/geoms/mol2/5ea5ea-5ea-.out
 29 31 0 0 0
SMALL
GASTEIGER

@<TRIPOS>ATOM
      1 C          -1.9647   -1.8922   -0.4021 C.ar    1  LIG1       -0.0083
      2 C          -0.6953   -1.8585    0.1038 C.ar    1  LIG1        0.0323
      3 C          -0.1841   -0.5206    0.2133 C.ar    1  LIG1       -0.0310
      4 C          -1.0792    0.4126   -0.2183 C.ar    1  LIG1        0.0283
      5 S          -2.5489   -0.3244   -0.7674 S.2     1  LIG1       -0.0949
      6 H          -2.5710   -2.7656   -0.5781 H       1  LIG1        0.0706
      7 C           0.0405   -3.0318    0.4929 C.1     1  LIG1       -0.0691
      8 C           0.6644   -4.0048    0.8197 C.1     1  LIG1       -0.1139
      9 H           1.2152   -4.8690    1.1095 H       1  LIG1        0.1232
     10 H           0.7930   -0.2799    0.6026 H       1  LIG1        0.0641
     11 C          -0.8984    1.8654   -0.2584 C.ar    1  LIG1        0.0419
     12 C           0.2542    2.5626   -0.5331 C.ar    1  LIG1        0.0405
     13 C           0.0679    3.9836   -0.4855 C.ar    1  LIG1       -0.0304
     14 C          -1.2122    4.3351   -0.1761 C.ar    1  LIG1        0.0289
     15 S          -2.2030    2.9382    0.0876 S.2     1  LIG1       -0.0859
     16 C           1.5091    1.9493   -0.8711 C.1     1  LIG1       -0.0685
     17 C           2.5696    1.4612   -1.1577 C.1     1  LIG1       -0.1139
     18 H           3.5057    1.0251   -1.4204 H       1  LIG1        0.1232
     19 H           0.8540    4.6937   -0.6912 H       1  LIG1        0.0641
     20 C          -1.7606    5.6865   -0.0447 C.ar    1  LIG1        0.0413
     21 C          -1.1138    6.8197    0.3889 C.ar    1  LIG1        0.0399
     22 C          -1.9693    7.9760    0.3921 C.ar    1  LIG1       -0.0387
     23 C          -3.2269    7.6904   -0.0278 C.ar    1  LIG1       -0.0225
     24 S          -3.4017    6.0319   -0.4526 S.2     1  LIG1       -0.0949
     25 H          -4.0656    8.3613   -0.1181 H       1  LIG1        0.0694
     26 C           0.2558    6.8598    0.8194 C.1     1  LIG1       -0.0685
     27 C           1.3995    6.9212    1.1843 C.1     1  LIG1       -0.1139
     28 H           2.4115    6.9656    1.5145 H       1  LIG1        0.1232
     29 H          -1.6328    8.9518    0.7058 H       1  LIG1        0.0635
@<TRIPOS>BOND
     1    18    17    1
     2    17    16    3
     3    16    12    1
     4     5     1   ar
     5     5     4   ar
     6    19    13    1
     7     6     1    1
     8    12    13   ar
     9    12    11   ar
    10    13    14   ar
    11    24    20   ar
    12    24    23   ar
    13     1     2   ar
    14    11     4    1
    15    11    15   ar
    16     4     3   ar
    17    14    20    1
    18    14    15   ar
    19    25    23    1
    20    20    21   ar
    21    23    22   ar
    22     2     3   ar
    23     2     7    1
    24     3    10    1
    25    21    22   ar
    26    21    26    1
    27    22    29    1
    28     7     8    3
    29    26    27    3
    30     8     9    1
    31    27    28    1
