@<TRIPOS>MOLECULE
mol_data/opt/m06hf/geoms/mol2/5ea5ea5ea-5ea.out
 38 41 0 0 0
SMALL
GASTEIGER

@<TRIPOS>ATOM
      1 C          -2.0324   -1.9344    0.0707 C.ar    1  LIG1       -0.0083
      2 C          -0.6975   -1.9313   -0.2230 C.ar    1  LIG1        0.0323
      3 C          -0.1439   -0.6061   -0.2458 C.ar    1  LIG1       -0.0310
      4 C          -1.0752    0.3492    0.0378 C.ar    1  LIG1        0.0283
      5 S          -2.6316   -0.3535    0.3394 S.2     1  LIG1       -0.0949
      6 H          -2.6802   -2.7922    0.1454 H       1  LIG1        0.0706
      7 C           0.0619   -3.1242   -0.4895 C.1     1  LIG1       -0.0691
      8 C           0.7014   -4.1168   -0.7118 C.1     1  LIG1       -0.1139
      9 H           1.2670   -4.9979   -0.9103 H       1  LIG1        0.1232
     10 H           0.8890   -0.3909   -0.4708 H       1  LIG1        0.0641
     11 C          -0.8746    1.7978    0.1115 C.ar    1  LIG1        0.0419
     12 C           0.2460    2.4752    0.5312 C.ar    1  LIG1        0.0405
     13 C           0.0828    3.8994    0.4857 C.ar    1  LIG1       -0.0304
     14 C          -1.1481    4.2722    0.0354 C.ar    1  LIG1        0.0289
     15 S          -2.1176    2.8931   -0.3688 S.2     1  LIG1       -0.0859
     16 C           1.4452    1.8420    1.0056 C.1     1  LIG1       -0.0685
     17 C           2.4603    1.3375    1.4045 C.1     1  LIG1       -0.1139
     18 H           3.3552    0.8846    1.7640 H       1  LIG1        0.1232
     19 H           0.8460    4.5967    0.7948 H       1  LIG1        0.0641
     20 C          -1.6647    5.6313   -0.1258 C.ar    1  LIG1        0.0419
     21 C          -0.9678    6.7627   -0.4805 C.ar    1  LIG1        0.0405
     22 C          -1.7995    7.9298   -0.5408 C.ar    1  LIG1       -0.0304
     23 C          -3.1006    7.6630   -0.2334 C.ar    1  LIG1        0.0289
     24 S          -3.3279    5.9917    0.1600 S.2     1  LIG1       -0.0859
     25 C           0.4330    6.7837   -0.7983 C.1     1  LIG1       -0.0685
     26 C           1.6032    6.8279   -1.0692 C.1     1  LIG1       -0.1139
     27 H           2.6388    6.8602   -1.3173 H       1  LIG1        0.1232
     28 H          -1.4359    8.9068   -0.8192 H       1  LIG1        0.0641
     29 C          -4.2226    8.6033   -0.2043 C.ar    1  LIG1        0.0413
     30 C          -4.1972    9.9359    0.1326 C.ar    1  LIG1        0.0399
     31 C          -5.4941   10.5515    0.0440 C.ar    1  LIG1       -0.0387
     32 C          -6.4555    9.6773   -0.3461 C.ar    1  LIG1       -0.0225
     33 S          -5.8182    8.1052   -0.6326 S.2     1  LIG1       -0.0949
     34 H          -7.5070    9.8661   -0.4876 H       1  LIG1        0.0694
     35 C          -3.0209   10.6462    0.5516 C.1     1  LIG1       -0.0685
     36 C          -2.0529   11.2659    0.9053 C.1     1  LIG1       -0.1139
     37 H          -1.1939   11.8088    1.2264 H       1  LIG1        0.1232
     38 H          -5.6646   11.5916    0.2754 H       1  LIG1        0.0635
@<TRIPOS>BOND
     1    27    26    1
     2    26    25    3
     3     9     8    1
     4    28    22    1
     5    25    21    1
     6     8     7    3
     7    33    32   ar
     8    33    29   ar
     9    22    21   ar
    10    22    23   ar
    11     7     2    1
    12    34    32    1
    13    21    20   ar
    14    10     3    1
    15    15    14   ar
    16    15    11   ar
    17    32    31   ar
    18     3     2   ar
    19     3     4   ar
    20    23    29    1
    21    23    24   ar
    22     2     1   ar
    23    29    30   ar
    24    20    14    1
    25    20    24   ar
    26    14    13   ar
    27     4    11    1
    28     4     5   ar
    29    31    30   ar
    30    31    38    1
    31     1     6    1
    32     1     5   ar
    33    11    12   ar
    34    30    35    1
    35    13    12   ar
    36    13    19    1
    37    12    16    1
    38    35    36    3
    39    36    37    1
    40    16    17    3
    41    17    18    1
