@<TRIPOS>MOLECULE
mol_data/opt/m06hf/geoms/mol2/5ed.out
 12 12 0 0 0
SMALL
GASTEIGER

@<TRIPOS>ATOM
      1 C          -2.1163   -1.6994    0.0001 C.ar    1  LIG1       -0.0077
      2 C          -0.7523   -1.6964   -0.0003 C.ar    1  LIG1        0.0490
      3 C          -0.2313   -0.3498   -0.0002 C.ar    1  LIG1        0.0741
      4 C          -1.2108    0.5972    0.0002 C.ar    1  LIG1       -0.0057
      5 S          -2.7675   -0.1140    0.0006 S.2     1  LIG1       -0.1025
      6 H          -2.7601   -2.5634    0.0002 H       1  LIG1        0.0706
      7 H          -1.0837    1.6674    0.0004 H       1  LIG1        0.0707
      8 C           0.0693   -2.8728   -0.0007 C.1     1  LIG1       -0.0678
      9 C           0.7700   -3.8473   -0.0010 C.1     1  LIG1       -0.1139
     10 H           1.3989   -4.7074   -0.0012 H       1  LIG1        0.1232
     11 N           2.2965    0.2027   -0.0007 N.1     1  LIG1       -0.1908
     12 C           1.1759   -0.0419   -0.0005 C.1     1  LIG1        0.1009
@<TRIPOS>BOND
     1    10     9    1
     2     9     8    3
     3    11    12    3
     4     8     2    1
     5    12     3    1
     6     2     3   ar
     7     2     1   ar
     8     3     4   ar
     9     1     6    1
    10     1     5   ar
    11     4     7    1
    12     4     5   ar
