@<TRIPOS>MOLECULE
mol_data/opt/m06hf/geoms/mol2/5ed5ed.out
 22 23 0 0 0
SMALL
GASTEIGER

@<TRIPOS>ATOM
      1 C          -1.8793   -1.7414    0.9098 C.ar    1  LIG1       -0.0070
      2 C          -0.7270   -1.8393    0.1860 C.ar    1  LIG1        0.0496
      3 C          -0.2668   -0.5454   -0.2532 C.ar    1  LIG1        0.0824
      4 C          -1.0767    0.4789    0.1579 C.ar    1  LIG1        0.0457
      5 S          -2.4046   -0.1194    1.0810 S.2     1  LIG1       -0.0935
      6 H          -2.4352   -2.5530    1.3491 H       1  LIG1        0.0706
      7 C          -0.0542   -3.0690   -0.1214 C.1     1  LIG1       -0.0678
      8 C           0.5219   -4.0879   -0.3875 C.1     1  LIG1       -0.1139
      9 H           1.0375   -4.9893   -0.6283 H       1  LIG1        0.1232
     10 N           1.8115   -0.2354   -1.7601 N.1     1  LIG1       -0.1908
     11 C           0.8932   -0.3653   -1.0850 C.1     1  LIG1        0.1015
     12 C          -0.9054    1.9121   -0.0958 C.ar    1  LIG1        0.0438
     13 C           0.2131    2.6663    0.1486 C.ar    1  LIG1        0.0573
     14 C           0.0105    4.0426   -0.2294 C.ar    1  LIG1        0.0747
     15 C          -1.2331    4.2803   -0.7320 C.ar    1  LIG1       -0.0051
     16 S          -2.1809    2.8590   -0.7741 S.2     1  LIG1       -0.0935
     17 H          -1.6243    5.2230   -1.0787 H       1  LIG1        0.0707
     18 C           1.4242    2.1733    0.7311 C.1     1  LIG1       -0.0672
     19 C           2.4495    1.7740    1.2102 C.1     1  LIG1       -0.1138
     20 H           3.3654    1.4163    1.6214 H       1  LIG1        0.1232
     21 N           1.8054    5.8835    0.0572 N.1     1  LIG1       -0.1908
     22 C           1.0135    5.0641   -0.0719 C.1     1  LIG1        0.1009
@<TRIPOS>BOND
     1    10    11    3
     2    11     3    1
     3    17    15    1
     4    16    15   ar
     5    16    12   ar
     6    15    14   ar
     7     9     8    1
     8     8     7    3
     9     3     4   ar
    10     3     2   ar
    11    14    22    1
    12    14    13   ar
    13     7     2    1
    14    12    13   ar
    15    12     4    1
    16    22    21    3
    17    13    18    1
    18     4     5   ar
    19     2     1   ar
    20    18    19    3
    21     1     5   ar
    22     1     6    1
    23    19    20    1
