@<TRIPOS>MOLECULE
mol_data/opt/m06hf/geoms/mol2/5ed5ed5ed-.out
 32 34 0 0 0
SMALL
GASTEIGER

@<TRIPOS>ATOM
      1 C          -1.8404   -1.9016   -0.5752 C.ar    1  LIG1       -0.0070
      2 C          -0.7329   -1.8353    0.2185 C.ar    1  LIG1        0.0496
      3 C          -0.2565   -0.4812    0.3503 C.ar    1  LIG1        0.0824
      4 C          -1.0113    0.4208   -0.3511 C.ar    1  LIG1        0.0457
      5 S          -2.3047   -0.3658   -1.1739 S.2     1  LIG1       -0.0935
      6 H          -2.3973   -2.7876   -0.8329 H       1  LIG1        0.0706
      7 C          -0.1168   -2.9614    0.8598 C.1     1  LIG1       -0.0678
      8 C           0.4119   -3.8916    1.4033 C.1     1  LIG1       -0.1139
      9 H           0.8848   -4.7139    1.8890 H       1  LIG1        0.1232
     10 N           1.7520    0.1471    1.8533 N.1     1  LIG1       -0.1908
     11 C           0.8637   -0.1225    1.1790 C.1     1  LIG1        0.1015
     12 C          -0.8136    1.8694   -0.4517 C.ar    1  LIG1        0.0444
     13 C           0.3389    2.5245   -0.8035 C.ar    1  LIG1        0.0579
     14 C           0.1539    3.9519   -0.8141 C.ar    1  LIG1        0.0830
     15 C          -1.1166    4.3339   -0.4747 C.ar    1  LIG1        0.0463
     16 S          -2.1015    2.9669   -0.1190 S.2     1  LIG1       -0.0846
     17 C           1.5666    1.8827   -1.1632 C.1     1  LIG1       -0.0672
     18 C           2.6036    1.3558   -1.4591 C.1     1  LIG1       -0.1138
     19 H           3.5294    0.8894   -1.7077 H       1  LIG1        0.1232
     20 N           2.0208    5.5839   -1.5451 N.1     1  LIG1       -0.1908
     21 C           1.1892    4.8678   -1.2119 C.1     1  LIG1        0.1016
     22 C          -1.6469    5.6962   -0.3763 C.ar    1  LIG1        0.0438
     23 C          -1.1098    6.7402    0.3324 C.ar    1  LIG1        0.0573
     24 C          -1.9163    7.9277    0.2048 C.ar    1  LIG1        0.0747
     25 C          -3.0194    7.7432   -0.5740 C.ar    1  LIG1       -0.0051
     26 S          -3.1067    6.1469   -1.1790 S.2     1  LIG1       -0.0935
     27 H          -3.7733    8.4745   -0.8176 H       1  LIG1        0.0707
     28 C           0.0777    6.6639    1.1277 C.1     1  LIG1       -0.0672
     29 C           1.0765    6.6084    1.7912 C.1     1  LIG1       -0.1138
     30 H           1.9697    6.5579    2.3712 H       1  LIG1        0.1232
     31 N          -1.3665   10.1775    1.3571 N.1     1  LIG1       -0.1908
     32 C          -1.6021    9.1775    0.8477 C.1     1  LIG1        0.1009
@<TRIPOS>BOND
     1    19    18    1
     2    20    21    3
     3    18    17    3
     4    21    14    1
     5    26    25   ar
     6    26    22   ar
     7     5     1   ar
     8     5     4   ar
     9    17    13    1
    10     6     1    1
    11    27    25    1
    12    14    13   ar
    13    14    15   ar
    14    13    12   ar
    15     1     2   ar
    16    25    24   ar
    17    15    22    1
    18    15    16   ar
    19    12     4    1
    20    12    16   ar
    21    22    23   ar
    22     4     3   ar
    23    24    23   ar
    24    24    32    1
    25     2     3   ar
    26     2     7    1
    27    23    28    1
    28     3    11    1
    29    32    31    3
    30     7     8    3
    31    28    29    3
    32    11    10    3
    33     8     9    1
    34    29    30    1
