@<TRIPOS>MOLECULE
mol_data/opt/m06hf/geoms/mol2/5ed5ed-.out
 22 23 0 0 0
SMALL
GASTEIGER

@<TRIPOS>ATOM
      1 C          -1.8749   -1.7489    0.8872 C.ar    1  LIG1       -0.0070
      2 C          -0.7245   -1.8410    0.1597 C.ar    1  LIG1        0.0496
      3 C          -0.2664   -0.5437   -0.2719 C.ar    1  LIG1        0.0824
      4 C          -1.0760    0.4771    0.1483 C.ar    1  LIG1        0.0457
      5 S          -2.4009   -0.1285    1.0708 S.2     1  LIG1       -0.0935
      6 H          -2.4290   -2.5639    1.3225 H       1  LIG1        0.0706
      7 C          -0.0515   -3.0681   -0.1578 C.1     1  LIG1       -0.0678
      8 C           0.5247   -4.0846   -0.4324 C.1     1  LIG1       -0.1139
      9 H           1.0403   -4.9840   -0.6807 H       1  LIG1        0.1232
     10 N           1.8077   -0.2219   -1.7822 N.1     1  LIG1       -0.1908
     11 C           0.8913   -0.3571   -1.1055 C.1     1  LIG1        0.1015
     12 C          -0.9064    1.9121   -0.0962 C.ar    1  LIG1        0.0438
     13 C           0.2122    2.6655    0.1504 C.ar    1  LIG1        0.0573
     14 C           0.0075    4.0442   -0.2177 C.ar    1  LIG1        0.0747
     15 C          -1.2375    4.2844   -0.7155 C.ar    1  LIG1       -0.0051
     16 S          -2.1843    2.8626   -0.7648 S.2     1  LIG1       -0.0935
     17 H          -1.6303    5.2291   -1.0548 H       1  LIG1        0.0707
     18 C           1.4251    2.1695    0.7265 C.1     1  LIG1       -0.0672
     19 C           2.4519    1.7676    1.2002 C.1     1  LIG1       -0.1138
     20 H           3.3691    1.4080    1.6067 H       1  LIG1        0.1232
     21 N           1.8019    5.8844    0.0768 N.1     1  LIG1       -0.1908
     22 C           1.0102    5.0653   -0.0558 C.1     1  LIG1        0.1009
@<TRIPOS>BOND
     1    10    11    3
     2    11     3    1
     3    17    15    1
     4    16    15   ar
     5    16    12   ar
     6    15    14   ar
     7     9     8    1
     8     8     7    3
     9     3     4   ar
    10     3     2   ar
    11    14    22    1
    12    14    13   ar
    13     7     2    1
    14    12     4    1
    15    12    13   ar
    16    22    21    3
    17     4     5   ar
    18    13    18    1
    19     2     1   ar
    20    18    19    3
    21     1     5   ar
    22     1     6    1
    23    19    20    1
