@<TRIPOS>MOLECULE
mol_data/opt/m06hf/geoms/mol2/5ed5ed-5ed-5ed-.out
 42 45 0 0 0
SMALL
GASTEIGER

@<TRIPOS>ATOM
      1 C          -1.8354   -1.9825    0.3912 C.ar    1  LIG1       -0.0070
      2 C          -0.5857   -1.9211   -0.1527 C.ar    1  LIG1        0.0496
      3 C          -0.1188   -0.5610   -0.2530 C.ar    1  LIG1        0.0824
      4 C          -1.0226    0.3501    0.2231 C.ar    1  LIG1        0.0457
      5 S          -2.4464   -0.4343    0.7947 S.2     1  LIG1       -0.0935
      6 H          -2.4177   -2.8711    0.5727 H       1  LIG1        0.0706
      7 C           0.1753   -3.0562   -0.5891 C.1     1  LIG1       -0.0678
      8 C           0.8260   -3.9932   -0.9618 C.1     1  LIG1       -0.1139
      9 H           1.4086   -4.8205   -1.2966 H       1  LIG1        0.1232
     10 N           2.1544    0.0511   -1.3229 N.1     1  LIG1       -0.1908
     11 C           1.1462   -0.2107   -0.8421 C.1     1  LIG1        0.1015
     12 C          -0.8741    1.8064    0.2870 C.ar    1  LIG1        0.0444
     13 C           0.1713    2.5075    0.8315 C.ar    1  LIG1        0.0579
     14 C          -0.0314    3.9283    0.7243 C.ar    1  LIG1        0.0830
     15 C          -1.2098    4.2606    0.1107 C.ar    1  LIG1        0.0463
     16 S          -2.0824    2.8527   -0.3601 S.2     1  LIG1       -0.0846
     17 C           1.3045    1.9180    1.4769 C.1     1  LIG1       -0.0672
     18 C           2.2602    1.4365    2.0201 C.1     1  LIG1       -0.1138
     19 H           3.1149    1.0081    2.4920 H       1  LIG1        0.1232
     20 N           1.6227    5.6480    1.7193 N.1     1  LIG1       -0.1908
     21 C           0.8879    4.8901    1.2710 C.1     1  LIG1        0.1016
     22 C          -1.7241    5.6039   -0.1645 C.ar    1  LIG1        0.0444
     23 C          -1.0602    6.6266   -0.7924 C.ar    1  LIG1        0.0579
     24 C          -1.8816    7.8038   -0.8967 C.ar    1  LIG1        0.0830
     25 C          -3.1287    7.6417   -0.3550 C.ar    1  LIG1        0.0463
     26 S          -3.3198    6.0629    0.3039 S.2     1  LIG1       -0.0846
     27 C           0.2640    6.5326   -1.3272 C.1     1  LIG1       -0.0672
     28 C           1.3747    6.4594   -1.7764 C.1     1  LIG1       -0.1138
     29 H           2.3655    6.3945   -2.1654 H       1  LIG1        0.1232
     30 N          -1.0972    9.9462   -2.1117 N.1     1  LIG1       -0.1908
     31 C          -1.4478    9.0014   -1.5646 C.1     1  LIG1        0.1016
     32 C          -4.2040    8.6337   -0.2756 C.ar    1  LIG1        0.0438
     33 C          -4.1120    9.9032    0.2345 C.ar    1  LIG1        0.0573
     34 C          -5.3757   10.5910    0.1536 C.ar    1  LIG1        0.0747
     35 C          -6.3637    9.8296   -0.3957 C.ar    1  LIG1       -0.0051
     36 S          -5.7967    8.2805   -0.8397 S.2     1  LIG1       -0.0935
     37 H          -7.3896   10.1166   -0.5620 H       1  LIG1        0.0707
     38 C          -2.9294   10.4716    0.8065 C.1     1  LIG1       -0.0672
     39 C          -1.9394   10.9553    1.2829 C.1     1  LIG1       -0.1138
     40 H          -1.0562   11.3870    1.6961 H       1  LIG1        0.1232
     41 N          -5.7518   13.0080    0.9945 N.1     1  LIG1       -0.1908
     42 C          -5.5792   11.9377    0.6210 C.1     1  LIG1        0.1009
@<TRIPOS>BOND
     1    29    28    1
     2    30    31    3
     3    28    27    3
     4    31    24    1
     5    27    23    1
     6    10    11    3
     7     9     8    1
     8     8     7    3
     9    24    23   ar
    10    24    25   ar
    11    11     3    1
    12    36    35   ar
    13    36    32   ar
    14    23    22   ar
    15     7     2    1
    16    37    35    1
    17    35    34   ar
    18    16    15   ar
    19    16    12   ar
    20    25    32    1
    21    25    26   ar
    22    32    33   ar
    23     3     2   ar
    24     3     4   ar
    25    22    15    1
    26    22    26   ar
    27     2     1   ar
    28    15    14   ar
    29    34    33   ar
    30    34    42    1
    31     4    12    1
    32     4     5   ar
    33    33    38    1
    34    12    13   ar
    35     1     6    1
    36     1     5   ar
    37    42    41    3
    38    14    13   ar
    39    14    21    1
    40    38    39    3
    41    13    17    1
    42    21    20    3
    43    39    40    1
    44    17    18    3
    45    18    19    1
