@<TRIPOS>MOLECULE
mol_data/opt/m06hf/geoms/mol2/5ed5ed-5ed5ed-.out
 42 45 0 0 0
SMALL
GASTEIGER

@<TRIPOS>ATOM
      1 C          -0.8356   -1.7952    1.7576 C.ar    1  LIG1       -0.0070
      2 C          -0.5095   -1.8800    0.4350 C.ar    1  LIG1        0.0496
      3 C          -0.3767   -0.5747   -0.1608 C.ar    1  LIG1        0.0824
      4 C          -0.5987    0.4428    0.7275 C.ar    1  LIG1        0.0457
      5 S          -0.9702   -0.1746    2.2929 S.2     1  LIG1       -0.0935
      6 H          -0.9988   -2.6175    2.4350 H       1  LIG1        0.0706
      7 C          -0.3330   -3.1082   -0.2860 C.1     1  LIG1       -0.0678
      8 C          -0.1821   -4.1284   -0.9001 C.1     1  LIG1       -0.1139
      9 H          -0.0469   -5.0323   -1.4491 H       1  LIG1        0.1232
     10 N           0.1239   -0.2197   -2.6723 N.1     1  LIG1       -0.1908
     11 C          -0.0907   -0.3709   -1.5558 C.1     1  LIG1        0.1015
     12 C          -0.5299    1.8842    0.4715 C.ar    1  LIG1        0.0444
     13 C           0.5211    2.5760   -0.0737 C.ar    1  LIG1        0.0579
     14 C           0.2343    3.9826   -0.1738 C.ar    1  LIG1        0.0830
     15 C          -1.0053    4.3146    0.3046 C.ar    1  LIG1        0.0463
     16 S          -1.8474    2.9232    0.8673 S.2     1  LIG1       -0.0846
     17 C           1.7603    1.9879   -0.4838 C.1     1  LIG1       -0.0672
     18 C           2.8006    1.5049   -0.8380 C.1     1  LIG1       -0.1138
     19 H           3.7195    1.0735   -1.1650 H       1  LIG1        0.1232
     20 N           1.8950    5.6757   -1.2028 N.1     1  LIG1       -0.1908
     21 C           1.1545    4.9296   -0.7442 C.1     1  LIG1        0.1016
     22 C          -1.6065    5.6487    0.3804 C.ar    1  LIG1        0.0444
     23 C          -1.0579    6.7646    0.9592 C.ar    1  LIG1        0.0579
     24 C          -1.9448    7.8948    0.8711 C.ar    1  LIG1        0.0830
     25 C          -3.1237    7.6074    0.2368 C.ar    1  LIG1        0.0463
     26 S          -3.1673    5.9643   -0.2776 S.2     1  LIG1       -0.0846
     27 C           0.2132    6.8050    1.6158 C.1     1  LIG1       -0.0672
     28 C           1.2790    6.8544    2.1654 C.1     1  LIG1       -0.1138
     29 H           2.2313    6.9033    2.6420 H       1  LIG1        0.1232
     30 N          -1.3998   10.1823    1.9457 N.1     1  LIG1       -0.1908
     31 C          -1.6421    9.1726    1.4585 C.1     1  LIG1        0.1016
     32 C          -4.2389    8.5172   -0.0369 C.ar    1  LIG1        0.0438
     33 C          -4.1702    9.7390   -0.6562 C.ar    1  LIG1        0.0573
     34 C          -5.4745   10.3426   -0.7651 C.ar    1  LIG1        0.0747
     35 C          -6.4664    9.5689   -0.2410 C.ar    1  LIG1       -0.0051
     36 S          -5.8563    8.1082    0.4036 S.2     1  LIG1       -0.0935
     37 H          -7.5195    9.7972   -0.2038 H       1  LIG1        0.0707
     38 C          -2.9713   10.3332   -1.1638 C.1     1  LIG1       -0.0672
     39 C          -1.9694   10.8413   -1.5867 C.1     1  LIG1       -0.1138
     40 H          -1.0773   11.2963   -1.9529 H       1  LIG1        0.1232
     41 N          -5.9168   12.6369   -1.8761 N.1     1  LIG1       -0.1908
     42 C          -5.7121   11.6223   -1.3819 C.1     1  LIG1        0.1009
@<TRIPOS>BOND
     1    10    11    3
     2    40    39    1
     3    41    42    3
     4    39    38    3
     5    11     3    1
     6     9     8    1
     7    42    34    1
     8    20    21    3
     9    19    18    1
    10    38    33    1
    11     8     7    3
    12    18    17    3
    13    34    33   ar
    14    34    35   ar
    15    21    14    1
    16    33    32   ar
    17    17    13    1
    18     7     2    1
    19    26    25   ar
    20    26    22   ar
    21    35    37    1
    22    35    36   ar
    23    14    13   ar
    24    14    15   ar
    25     3     2   ar
    26     3     4   ar
    27    13    12   ar
    28    32    25    1
    29    32    36   ar
    30    25    24   ar
    31    15    22    1
    32    15    16   ar
    33    22    23   ar
    34     2     1   ar
    35    12     4    1
    36    12    16   ar
    37     4     5   ar
    38    24    23   ar
    39    24    31    1
    40    23    27    1
    41    31    30    3
    42    27    28    3
    43     1     5   ar
    44     1     6    1
    45    28    29    1
