@<TRIPOS>MOLECULE
mol_data/opt/m06hf/geoms/mol2/5ed5ed-5ed.out
 32 34 0 0 0
SMALL
GASTEIGER

@<TRIPOS>ATOM
      1 C          -1.8421   -1.9040   -0.5538 C.ar    1  LIG1       -0.0070
      2 C          -0.7195   -1.8362    0.2184 C.ar    1  LIG1        0.0496
      3 C          -0.2432   -0.4812    0.3420 C.ar    1  LIG1        0.0824
      4 C          -1.0132    0.4199   -0.3438 C.ar    1  LIG1        0.0457
      5 S          -2.3208   -0.3686   -1.1421 S.2     1  LIG1       -0.0935
      6 H          -2.4022   -2.7908   -0.8014 H       1  LIG1        0.0706
      7 C          -0.0890   -2.9615    0.8467 C.1     1  LIG1       -0.0678
      8 C           0.4519   -3.8912    1.3791 C.1     1  LIG1       -0.1139
      9 H           0.9358   -4.7129    1.8548 H       1  LIG1        0.1232
     10 N           1.7927    0.1498    1.8063 N.1     1  LIG1       -0.1908
     11 C           0.8921   -0.1211    1.1492 C.1     1  LIG1        0.1015
     12 C          -0.8203    1.8689   -0.4471 C.ar    1  LIG1        0.0444
     13 C           0.3239    2.5265   -0.8205 C.ar    1  LIG1        0.0579
     14 C           0.1359    3.9536   -0.8264 C.ar    1  LIG1        0.0830
     15 C          -1.1285    4.3328   -0.4621 C.ar    1  LIG1        0.0463
     16 S          -2.1037    2.9637   -0.0885 S.2     1  LIG1       -0.0846
     17 C           1.5456    1.8873   -1.2045 C.1     1  LIG1       -0.0672
     18 C           2.5776    1.3627   -1.5209 C.1     1  LIG1       -0.1138
     19 H           3.4994    0.8983   -1.7878 H       1  LIG1        0.1232
     20 N           1.9853    5.5898   -1.5920 N.1     1  LIG1       -0.1908
     21 C           1.1616    4.8718   -1.2434 C.1     1  LIG1        0.1016
     22 C          -1.6593    5.6940   -0.3523 C.ar    1  LIG1        0.0438
     23 C          -1.1106    6.7385    0.3467 C.ar    1  LIG1        0.0573
     24 C          -1.9217    7.9245    0.2358 C.ar    1  LIG1        0.0747
     25 C          -3.0394    7.7386   -0.5217 C.ar    1  LIG1       -0.0051
     26 S          -3.1352    6.1425   -1.1262 S.2     1  LIG1       -0.0935
     27 H          -3.7991    8.4686   -0.7500 H       1  LIG1        0.0707
     28 C           0.0923    6.6638    1.1188 C.1     1  LIG1       -0.0672
     29 C           1.1038    6.6097    1.7628 C.1     1  LIG1       -0.1138
     30 H           2.0082    6.5605    2.3253 H       1  LIG1        0.1232
     31 N          -1.3539   10.1744    1.3791 N.1     1  LIG1       -0.1908
     32 C          -1.5974    9.1744    0.8735 C.1     1  LIG1        0.1009
@<TRIPOS>BOND
     1    19    18    1
     2    20    21    3
     3    18    17    3
     4    21    14    1
     5    17    13    1
     6     5     1   ar
     7     5     4   ar
     8    26    25   ar
     9    26    22   ar
    10    14    13   ar
    11    14    15   ar
    12    13    12   ar
    13     6     1    1
    14    27    25    1
    15     1     2   ar
    16    25    24   ar
    17    15    22    1
    18    15    16   ar
    19    12     4    1
    20    12    16   ar
    21    22    23   ar
    22     4     3   ar
    23     2     3   ar
    24     2     7    1
    25    24    23   ar
    26    24    32    1
    27     3    11    1
    28    23    28    1
    29     7     8    3
    30    32    31    3
    31    28    29    3
    32    11    10    3
    33     8     9    1
    34    29    30    1
