@<TRIPOS>MOLECULE
mol_data/opt/m06hf/geoms/mol2/5ed5ed-5ed5ed.out
 42 45 0 0 0
SMALL
GASTEIGER

@<TRIPOS>ATOM
      1 C          -1.8242   -1.9810   -0.4198 C.ar    1  LIG1       -0.0070
      2 C          -0.5838   -1.9212    0.1454 C.ar    1  LIG1        0.0496
      3 C          -0.1196   -0.5614    0.2595 C.ar    1  LIG1        0.0824
      4 C          -1.0159    0.3513   -0.2278 C.ar    1  LIG1        0.0457
      5 S          -2.4293   -0.4314   -0.8269 S.2     1  LIG1       -0.0935
      6 H          -2.4027   -2.8692   -0.6150 H       1  LIG1        0.0706
      7 C           0.1704   -3.0578    0.5897 C.1     1  LIG1       -0.0678
      8 C           0.8153   -3.9960    0.9692 C.1     1  LIG1       -0.1139
      9 H           1.3927   -4.8244    1.3103 H       1  LIG1        0.1232
     10 N           2.1347    0.0475    1.3704 N.1     1  LIG1       -0.1908
     11 C           1.1350   -0.2128    0.8714 C.1     1  LIG1        0.1015
     12 C          -0.8674    1.8080   -0.2829 C.ar    1  LIG1        0.0444
     13 C           0.1866    2.5121   -0.8066 C.ar    1  LIG1        0.0579
     14 C          -0.0189    3.9323   -0.6966 C.ar    1  LIG1        0.0830
     15 C          -1.2077    4.2611   -0.1016 C.ar    1  LIG1        0.0463
     16 S          -2.0872    2.8507    0.3482 S.2     1  LIG1       -0.0846
     17 C           1.3310    1.9261   -1.4352 C.1     1  LIG1       -0.0672
     18 C           2.2961    1.4476   -1.9643 C.1     1  LIG1       -0.1138
     19 H           3.1589    1.0218   -2.4235 H       1  LIG1        0.1232
     20 N           1.6507    5.6573   -1.6560 N.1     1  LIG1       -0.1908
     21 C           0.9089    4.8970   -1.2234 C.1     1  LIG1        0.1016
     22 C          -1.7275    5.6029    0.1707 C.ar    1  LIG1        0.0444
     23 C          -1.0750    6.6233    0.8142 C.ar    1  LIG1        0.0579
     24 C          -1.8989    7.7995    0.9097 C.ar    1  LIG1        0.0830
     25 C          -3.1366    7.6390    0.3462 C.ar    1  LIG1        0.0463
     26 S          -3.3153    6.0630   -0.3226 S.2     1  LIG1       -0.0846
     27 C           0.2400    6.5278    1.3709 C.1     1  LIG1       -0.0672
     28 C           1.3430    6.4533    1.8385 C.1     1  LIG1       -0.1138
     29 H           2.3271    6.3873    2.2439 H       1  LIG1        0.1232
     30 N          -1.1366    9.9370    2.1471 N.1     1  LIG1       -0.1908
     31 C          -1.4773    8.9945    1.5900 C.1     1  LIG1        0.1016
     32 C          -4.2111    8.6307    0.2530 C.ar    1  LIG1        0.0438
     33 C          -4.1113    9.9025   -0.2500 C.ar    1  LIG1        0.0573
     34 C          -5.3767   10.5890   -0.1875 C.ar    1  LIG1        0.0747
     35 C          -6.3733    9.8247    0.3417 C.ar    1  LIG1       -0.0051
     36 S          -5.8128    8.2740    0.7885 S.2     1  LIG1       -0.0935
     37 H          -7.4021   10.1103    0.4918 H       1  LIG1        0.0707
     38 C          -2.9195   10.4740   -0.7994 C.1     1  LIG1       -0.0672
     39 C          -1.9220   10.9604   -1.2569 C.1     1  LIG1       -0.1138
     40 H          -1.0322   11.3945   -1.6532 H       1  LIG1        0.1232
     41 N          -5.7402   13.0095   -1.0242 N.1     1  LIG1       -0.1908
     42 C          -5.5732   11.9377   -0.6524 C.1     1  LIG1        0.1009
@<TRIPOS>BOND
     1    19    18    1
     2    18    17    3
     3    20    21    3
     4    40    39    1
     5    17    13    1
     6    39    38    3
     7    21    14    1
     8    41    42    3
     9     5     1   ar
    10     5     4   ar
    11    13    14   ar
    12    13    12   ar
    13    38    33    1
    14    14    15   ar
    15    42    34    1
    16     6     1    1
    17     1     2   ar
    18    26    22   ar
    19    26    25   ar
    20    12     4    1
    21    12    16   ar
    22    33    34   ar
    23    33    32   ar
    24     4     3   ar
    25    34    35   ar
    26    15    22    1
    27    15    16   ar
    28     2     3   ar
    29     2     7    1
    30    22    23   ar
    31    32    25    1
    32    32    36   ar
    33     3    11    1
    34    35    37    1
    35    35    36   ar
    36    25    24   ar
    37     7     8    3
    38    23    24   ar
    39    23    27    1
    40    11    10    3
    41    24    31    1
    42     8     9    1
    43    27    28    3
    44    31    30    3
    45    28    29    1
