@<TRIPOS>MOLECULE
mol_data/opt/m06hf/geoms/mol2/5ed5ed5ed.out
 32 34 0 0 0
SMALL
GASTEIGER

@<TRIPOS>ATOM
      1 C          -1.8330   -1.9052   -0.5713 C.ar    1  LIG1       -0.0070
      2 C          -0.7166   -1.8365    0.2099 C.ar    1  LIG1        0.0496
      3 C          -0.2427   -0.4812    0.3377 C.ar    1  LIG1        0.0824
      4 C          -1.0081    0.4194   -0.3541 C.ar    1  LIG1        0.0457
      5 S          -2.3084   -0.3701   -1.1631 S.2     1  LIG1       -0.0935
      6 H          -2.3902   -2.7925   -0.8236 H       1  LIG1        0.0706
      7 C          -0.0901   -2.9614    0.8429 C.1     1  LIG1       -0.0678
      8 C           0.4474   -3.8906    1.3794 C.1     1  LIG1       -0.1139
      9 H           0.9282   -4.7120    1.8589 H       1  LIG1        0.1232
     10 N           1.7808    0.1514    1.8184 N.1     1  LIG1       -0.1908
     11 C           0.8857   -0.1201    1.1540 C.1     1  LIG1        0.1015
     12 C          -0.8157    1.8686   -0.4553 C.ar    1  LIG1        0.0444
     13 C           0.3307    2.5275   -0.8194 C.ar    1  LIG1        0.0579
     14 C           0.1415    3.9544   -0.8261 C.ar    1  LIG1        0.0830
     15 C          -1.1261    4.3323   -0.4717 C.ar    1  LIG1        0.0463
     16 S          -2.1030    2.9621   -0.1066 S.2     1  LIG1       -0.0846
     17 C           1.5561    1.8897   -1.1938 C.1     1  LIG1       -0.0672
     18 C           2.5911    1.3661   -1.5021 C.1     1  LIG1       -0.1138
     19 H           3.5153    0.9025   -1.7618 H       1  LIG1        0.1232
     20 N           1.9954    5.5928   -1.5758 N.1     1  LIG1       -0.1908
     21 C           1.1697    4.8738   -1.2343 C.1     1  LIG1        0.1016
     22 C          -1.6590    5.6929   -0.3653 C.ar    1  LIG1        0.0438
     23 C          -1.1168    6.7375    0.3388 C.ar    1  LIG1        0.0573
     24 C          -1.9281    7.9228    0.2221 C.ar    1  LIG1        0.0747
     25 C          -3.0396    7.7363   -0.5442 C.ar    1  LIG1       -0.0051
     26 S          -3.1290    6.1407   -1.1508 S.2     1  LIG1       -0.0935
     27 H          -3.7982    8.4658   -0.7781 H       1  LIG1        0.0707
     28 C           0.0799    6.6634    1.1203 C.1     1  LIG1       -0.0672
     29 C           1.0864    6.6099    1.7722 C.1     1  LIG1       -0.1138
     30 H           1.9864    6.5611    2.3419 H       1  LIG1        0.1232
     31 N          -1.3716   10.1724    1.3716 N.1     1  LIG1       -0.1908
     32 C          -1.6101    9.1725    0.8632 C.1     1  LIG1        0.1009
@<TRIPOS>BOND
     1    19    18    1
     2    20    21    3
     3    18    17    3
     4    21    14    1
     5    17    13    1
     6     5     1   ar
     7     5     4   ar
     8    26    25   ar
     9    26    22   ar
    10    14    13   ar
    11    14    15   ar
    12     6     1    1
    13    13    12   ar
    14    27    25    1
    15     1     2   ar
    16    25    24   ar
    17    15    22    1
    18    15    16   ar
    19    12     4    1
    20    12    16   ar
    21    22    23   ar
    22     4     3   ar
    23     2     3   ar
    24     2     7    1
    25    24    23   ar
    26    24    32    1
    27     3    11    1
    28    23    28    1
    29     7     8    3
    30    32    31    3
    31    28    29    3
    32    11    10    3
    33     8     9    1
    34    29    30    1
