@<TRIPOS>MOLECULE
mol_data/opt/m06hf/geoms/mol2/5ed5ed5ed-5ed.out
 42 45 0 0 0
SMALL
GASTEIGER

@<TRIPOS>ATOM
      1 C          -1.8194   -1.9817   -0.4338 C.ar    1  LIG1       -0.0070
      2 C          -0.5890   -1.9212    0.1527 C.ar    1  LIG1        0.0496
      3 C          -0.1263   -0.5613    0.2721 C.ar    1  LIG1        0.0824
      4 C          -1.0136    0.3507   -0.2326 C.ar    1  LIG1        0.0457
      5 S          -2.4167   -0.4327   -0.8545 S.2     1  LIG1       -0.0935
      6 H          -2.3948   -2.8701   -0.6371 H       1  LIG1        0.0706
      7 C           0.1570   -3.0571    0.6124 C.1     1  LIG1       -0.0678
      8 C           0.7948   -3.9948    1.0050 C.1     1  LIG1       -0.1139
      9 H           1.3658   -4.8227    1.3578 H       1  LIG1        0.1232
     10 N           2.1087    0.0490    1.4206 N.1     1  LIG1       -0.1908
     11 C           1.1177   -0.2119    0.9049 C.1     1  LIG1        0.1015
     12 C          -0.8635    1.8072   -0.2882 C.ar    1  LIG1        0.0444
     13 C           0.1997    2.5098   -0.7950 C.ar    1  LIG1        0.0579
     14 C          -0.0070    3.9303   -0.6915 C.ar    1  LIG1        0.0830
     15 C          -1.2058    4.2609   -0.1180 C.ar    1  LIG1        0.0463
     16 S          -2.0936    2.8517    0.3195 S.2     1  LIG1       -0.0846
     17 C           1.3546    1.9220   -1.4024 C.1     1  LIG1       -0.0672
     18 C           2.3285    1.4421   -1.9137 C.1     1  LIG1       -0.1138
     19 H           3.1990    1.0150   -2.3570 H       1  LIG1        0.1232
     20 N           1.6796    5.6527   -1.6254 N.1     1  LIG1       -0.1908
     21 C           0.9302    4.8936   -1.2042 C.1     1  LIG1        0.1016
     22 C          -1.7297    5.6034    0.1425 C.ar    1  LIG1        0.0444
     23 C          -1.0881    6.6249    0.7951 C.ar    1  LIG1        0.0579
     24 C          -1.9130    7.8016    0.8738 C.ar    1  LIG1        0.0830
     25 C          -3.1408    7.6404    0.2893 C.ar    1  LIG1        0.0463
     26 S          -3.3086    6.0631   -0.3792 S.2     1  LIG1       -0.0846
     27 C           0.2170    6.5301    1.3747 C.1     1  LIG1       -0.0672
     28 C           1.3117    6.4561    1.8615 C.1     1  LIG1       -0.1138
     29 H           2.2887    6.3906    2.2841 H       1  LIG1        0.1232
     30 N          -1.1714    9.9415    2.1197 N.1     1  LIG1       -0.1908
     31 C          -1.5028    8.9978    1.5588 C.1     1  LIG1        0.1016
     32 C          -4.2131    8.6323    0.1754 C.ar    1  LIG1        0.0438
     33 C          -4.1041    9.9030   -0.3285 C.ar    1  LIG1        0.0573
     34 C          -5.3701   10.5902   -0.2894 C.ar    1  LIG1        0.0747
     35 C          -6.3760    9.8273    0.2241 C.ar    1  LIG1       -0.0051
     36 S          -5.8240    8.2774    0.6838 S.2     1  LIG1       -0.0935
     37 H          -7.4072   10.1136    0.3558 H       1  LIG1        0.0707
     38 C          -2.9028   10.4730   -0.8583 C.1     1  LIG1       -0.0672
     39 C          -1.8972   10.9580   -1.2995 C.1     1  LIG1       -0.1138
     40 H          -1.0005   11.3909   -1.6812 H       1  LIG1        0.1232
     41 N          -5.7180   13.0090   -1.1372 N.1     1  LIG1       -0.1908
     42 C          -5.5580   11.9379   -0.7604 C.1     1  LIG1        0.1009
@<TRIPOS>BOND
     1    19    18    1
     2    18    17    3
     3    40    39    1
     4    20    21    3
     5    17    13    1
     6    39    38    3
     7    21    14    1
     8    41    42    3
     9    38    33    1
    10     5     1   ar
    11     5     4   ar
    12    13    14   ar
    13    13    12   ar
    14    42    34    1
    15    14    15   ar
    16     6     1    1
    17     1     2   ar
    18    26    22   ar
    19    26    25   ar
    20    33    34   ar
    21    33    32   ar
    22    34    35   ar
    23    12     4    1
    24    12    16   ar
    25     4     3   ar
    26    15    22    1
    27    15    16   ar
    28    22    23   ar
    29     2     3   ar
    30     2     7    1
    31    32    25    1
    32    32    36   ar
    33    35    37    1
    34    35    36   ar
    35     3    11    1
    36    25    24   ar
    37     7     8    3
    38    23    24   ar
    39    23    27    1
    40    24    31    1
    41    11    10    3
    42     8     9    1
    43    27    28    3
    44    31    30    3
    45    28    29    1
