@<TRIPOS>MOLECULE
mol_data/opt/m06hf/geoms/mol2/5ed5ed-5ed-5ed.out
 42 45 0 0 0
SMALL
GASTEIGER

@<TRIPOS>ATOM
      1 C          -1.8338   -1.9832    0.3854 C.ar    1  LIG1       -0.0070
      2 C          -0.5859   -1.9207   -0.1626 C.ar    1  LIG1        0.0496
      3 C          -0.1194   -0.5605   -0.2620 C.ar    1  LIG1        0.0824
      4 C          -1.0217    0.3497    0.2189 C.ar    1  LIG1        0.0457
      5 S          -2.4434   -0.4358    0.7940 S.2     1  LIG1       -0.0935
      6 H          -2.4154   -2.8722    0.5673 H       1  LIG1        0.0706
      7 C           0.1736   -3.0550   -0.6038 C.1     1  LIG1       -0.0678
      8 C           0.8230   -3.9913   -0.9804 C.1     1  LIG1       -0.1139
      9 H           1.4045   -4.8179   -1.3189 H       1  LIG1        0.1232
     10 N           2.1500    0.0538   -1.3386 N.1     1  LIG1       -0.1908
     11 C           1.1435   -0.2089   -0.8548 C.1     1  LIG1        0.1015
     12 C          -0.8731    1.8059    0.2851 C.ar    1  LIG1        0.0444
     13 C           0.1742    2.5060    0.8273 C.ar    1  LIG1        0.0579
     14 C          -0.0289    3.9270    0.7234 C.ar    1  LIG1        0.0830
     15 C          -1.2094    4.2604    0.1146 C.ar    1  LIG1        0.0463
     16 S          -2.0836    2.8533   -0.3559 S.2     1  LIG1       -0.0846
     17 C           1.3096    1.9153    1.4677 C.1     1  LIG1       -0.0672
     18 C           2.2672    1.4329    2.0067 C.1     1  LIG1       -0.1138
     19 H           3.1236    1.0037    2.4749 H       1  LIG1        0.1232
     20 N           1.6285    5.6449    1.7160 N.1     1  LIG1       -0.1908
     21 C           0.8922    4.8878    1.2688 C.1     1  LIG1        0.1016
     22 C          -1.7247    5.6041   -0.1564 C.ar    1  LIG1        0.0444
     23 C          -1.0630    6.6281   -0.7846 C.ar    1  LIG1        0.0579
     24 C          -1.8849    7.8054   -0.8839 C.ar    1  LIG1        0.0830
     25 C          -3.1302    7.6423   -0.3382 C.ar    1  LIG1        0.0463
     26 S          -3.3188    6.0623    0.3184 S.2     1  LIG1       -0.0846
     27 C           0.2593    6.5352   -1.3241 C.1     1  LIG1       -0.0672
     28 C           1.3685    6.4629   -1.7773 C.1     1  LIG1       -0.1138
     29 H           2.3579    6.3987   -2.1698 H       1  LIG1        0.1232
     30 N          -1.1048    9.9501   -2.0975 N.1     1  LIG1       -0.1908
     31 C          -1.4535    9.0043   -1.5510 C.1     1  LIG1        0.1016
     32 C          -4.2052    8.6341   -0.2533 C.ar    1  LIG1        0.0438
     33 C          -4.1115    9.9026    0.2590 C.ar    1  LIG1        0.0573
     34 C          -5.3755   10.5904    0.1837 C.ar    1  LIG1        0.0747
     35 C          -6.3653    9.8300   -0.3637 C.ar    1  LIG1       -0.0051
     36 S          -5.7998    8.2818   -0.8125 S.2     1  LIG1       -0.0935
     37 H          -7.3919   10.1173   -0.5259 H       1  LIG1        0.0707
     38 C          -2.9269   10.4700    0.8279 C.1     1  LIG1       -0.0672
     39 C          -1.9353   10.9528    1.3019 C.1     1  LIG1       -0.1138
     40 H          -1.0507   11.3838    1.7128 H       1  LIG1        0.1232
     41 N          -5.7488   13.0058    1.0304 N.1     1  LIG1       -0.1908
     42 C          -5.5775   11.9362    0.6543 C.1     1  LIG1        0.1009
@<TRIPOS>BOND
     1    29    28    1
     2    30    31    3
     3    28    27    3
     4    31    24    1
     5    10    11    3
     6    27    23    1
     7     9     8    1
     8     8     7    3
     9    24    23   ar
    10    24    25   ar
    11    11     3    1
    12    36    35   ar
    13    36    32   ar
    14    23    22   ar
    15     7     2    1
    16    37    35    1
    17    35    34   ar
    18    16    15   ar
    19    16    12   ar
    20    25    32    1
    21    25    26   ar
    22     3     2   ar
    23     3     4   ar
    24    32    33   ar
    25     2     1   ar
    26    22    15    1
    27    22    26   ar
    28    15    14   ar
    29    34    33   ar
    30    34    42    1
    31     4    12    1
    32     4     5   ar
    33    33    38    1
    34    12    13   ar
    35     1     6    1
    36     1     5   ar
    37    42    41    3
    38    14    13   ar
    39    14    21    1
    40    13    17    1
    41    38    39    3
    42    21    20    3
    43    39    40    1
    44    17    18    3
    45    18    19    1
