@<TRIPOS>MOLECULE
mol_data/opt/m06hf/geoms/mol2/5ed5ed-5ed-.out
 32 34 0 0 0
SMALL
GASTEIGER

@<TRIPOS>ATOM
      1 C          -1.8148   -1.9073   -0.5883 C.ar    1  LIG1       -0.0070
      2 C          -0.6897   -1.8400    0.1804 C.ar    1  LIG1        0.0496
      3 C          -0.2213   -0.4834    0.3152 C.ar    1  LIG1        0.0824
      4 C          -0.9993    0.4194   -0.3592 C.ar    1  LIG1        0.0457
      5 S          -2.3050   -0.3695   -1.1603 S.2     1  LIG1       -0.0935
      6 H          -2.3703   -2.7952   -0.8422 H       1  LIG1        0.0706
      7 C          -0.0501   -2.9674    0.7957 C.1     1  LIG1       -0.0678
      8 C           0.4985   -3.8986    1.3173 C.1     1  LIG1       -0.1139
      9 H           0.9891   -4.7219    1.7835 H       1  LIG1        0.1232
     10 N           1.8161    0.1462    1.7781 N.1     1  LIG1       -0.1908
     11 C           0.9147   -0.1240    1.1217 C.1     1  LIG1        0.1015
     12 C          -0.8157    1.8705   -0.4492 C.ar    1  LIG1        0.0444
     13 C           0.3230    2.5387   -0.8206 C.ar    1  LIG1        0.0579
     14 C           0.1264    3.9646   -0.8118 C.ar    1  LIG1        0.0830
     15 C          -1.1389    4.3326   -0.4391 C.ar    1  LIG1        0.0463
     16 S          -2.1044    2.9539   -0.0754 S.2     1  LIG1       -0.0846
     17 C           1.5472    1.9108   -1.2151 C.1     1  LIG1       -0.0672
     18 C           2.5812    1.3955   -1.5403 C.1     1  LIG1       -0.1138
     19 H           3.5047    0.9392   -1.8150 H       1  LIG1        0.1232
     20 N           1.9629    5.6196   -1.5678 N.1     1  LIG1       -0.1908
     21 C           1.1450    4.8931   -1.2234 C.1     1  LIG1        0.1016
     22 C          -1.6775    5.6893   -0.3139 C.ar    1  LIG1        0.0438
     23 C          -1.1324    6.7302    0.3934 C.ar    1  LIG1        0.0573
     24 C          -1.9511    7.9123    0.2973 C.ar    1  LIG1        0.0747
     25 C          -3.0705    7.7270   -0.4578 C.ar    1  LIG1       -0.0051
     26 S          -3.1589    6.1366   -1.0780 S.2     1  LIG1       -0.0935
     27 H          -3.8356    8.4546   -0.6760 H       1  LIG1        0.0707
     28 C           0.0737    6.6551    1.1603 C.1     1  LIG1       -0.0672
     29 C           1.0880    6.6009    1.7999 C.1     1  LIG1       -0.1138
     30 H           1.9948    6.5517    2.3585 H       1  LIG1        0.1232
     31 N          -1.3928   10.1540    1.4611 N.1     1  LIG1       -0.1908
     32 C          -1.6321    9.1577    0.9462 C.1     1  LIG1        0.1009
@<TRIPOS>BOND
     1    19    18    1
     2    20    21    3
     3    18    17    3
     4    21    14    1
     5    17    13    1
     6     5     1   ar
     7     5     4   ar
     8    26    25   ar
     9    26    22   ar
    10     6     1    1
    11    13    14   ar
    12    13    12   ar
    13    14    15   ar
    14    27    25    1
    15     1     2   ar
    16    25    24   ar
    17    12     4    1
    18    12    16   ar
    19    15    22    1
    20    15    16   ar
    21     4     3   ar
    22    22    23   ar
    23     2     3   ar
    24     2     7    1
    25    24    23   ar
    26    24    32    1
    27     3    11    1
    28    23    28    1
    29     7     8    3
    30    32    31    3
    31    11    10    3
    32    28    29    3
    33     8     9    1
    34    29    30    1
