@<TRIPOS>MOLECULE
mol_data/opt/m06hf/geoms/mol2/5ed5ed5ed5ed.out
 42 45 0 0 0
SMALL
GASTEIGER

@<TRIPOS>ATOM
      1 C          -1.8272   -1.9823   -0.4134 C.ar    1  LIG1       -0.0070
      2 C          -0.5882   -1.9211    0.1546 C.ar    1  LIG1        0.0496
      3 C          -0.1234   -0.5611    0.2648 C.ar    1  LIG1        0.0824
      4 C          -1.0179    0.3503   -0.2281 C.ar    1  LIG1        0.0457
      5 S          -2.4303   -0.4339   -0.8277 S.2     1  LIG1       -0.0935
      6 H          -2.4057   -2.8708   -0.6066 H       1  LIG1        0.0706
      7 C           0.1643   -3.0565    0.6049 C.1     1  LIG1       -0.0678
      8 C           0.8078   -3.9937    0.9895 C.1     1  LIG1       -0.1139
      9 H           1.3838   -4.8211    1.3350 H       1  LIG1        0.1232
     10 N           2.1286    0.0504    1.3788 N.1     1  LIG1       -0.1908
     11 C           1.1299   -0.2110    0.8784 C.1     1  LIG1        0.1015
     12 C          -0.8684    1.8066   -0.2883 C.ar    1  LIG1        0.0444
     13 C           0.1873    2.5081   -0.8120 C.ar    1  LIG1        0.0579
     14 C          -0.0175    3.9289   -0.7078 C.ar    1  LIG1        0.0830
     15 C          -1.2076    4.2606   -0.1169 C.ar    1  LIG1        0.0463
     16 S          -2.0890    2.8524    0.3360 S.2     1  LIG1       -0.0846
     17 C           1.3328    1.9191   -1.4357 C.1     1  LIG1       -0.0672
     18 C           2.2989    1.4380   -1.9607 C.1     1  LIG1       -0.1138
     19 H           3.1626    1.0100   -2.4162 H       1  LIG1        0.1232
     20 N           1.6554    5.6493   -1.6696 N.1     1  LIG1       -0.1908
     21 C           0.9121    4.8910   -1.2360 C.1     1  LIG1        0.1016
     22 C          -1.7272    5.6037    0.1492 C.ar    1  LIG1        0.0444
     23 C          -1.0756    6.6261    0.7905 C.ar    1  LIG1        0.0579
     24 C          -1.8991    7.8031    0.8796 C.ar    1  LIG1        0.0830
     25 C          -3.1355    7.6413    0.3138 C.ar    1  LIG1        0.0463
     26 S          -3.3136    6.0630   -0.3497 S.2     1  LIG1       -0.0846
     27 C           0.2379    6.5319    1.3507 C.1     1  LIG1       -0.0672
     28 C           1.3398    6.4584    1.8212 C.1     1  LIG1       -0.1138
     29 H           2.3229    6.3933    2.2293 H       1  LIG1        0.1232
     30 N          -1.1384    9.9448    2.1109 N.1     1  LIG1       -0.1908
     31 C          -1.4784    9.0004    1.5565 C.1     1  LIG1        0.1016
     32 C          -4.2091    8.6334    0.2143 C.ar    1  LIG1        0.0438
     33 C          -4.1073    9.9032   -0.2932 C.ar    1  LIG1        0.0573
     34 C          -5.3724   10.5908   -0.2363 C.ar    1  LIG1        0.0747
     35 C          -6.3707    9.8290    0.2934 C.ar    1  LIG1       -0.0051
     36 S          -5.8123    8.2797    0.7472 S.2     1  LIG1       -0.0935
     37 H          -7.3997   10.1158    0.4400 H       1  LIG1        0.0707
     38 C          -2.9139   10.4720   -0.8418 C.1     1  LIG1       -0.0672
     39 C          -1.9149   10.9561   -1.2987 C.1     1  LIG1       -0.1138
     40 H          -1.0239   11.3881   -1.6944 H       1  LIG1        0.1232
     41 N          -5.7324   13.0083   -1.0827 N.1     1  LIG1       -0.1908
     42 C          -5.5670   11.9378   -0.7066 C.1     1  LIG1        0.1009
@<TRIPOS>BOND
     1    19    18    1
     2    18    17    3
     3    40    39    1
     4    20    21    3
     5    17    13    1
     6    39    38    3
     7    21    14    1
     8    41    42    3
     9    38    33    1
    10     5     1   ar
    11     5     4   ar
    12    13    14   ar
    13    13    12   ar
    14    14    15   ar
    15    42    34    1
    16     6     1    1
    17     1     2   ar
    18    26    22   ar
    19    26    25   ar
    20    33    34   ar
    21    33    32   ar
    22    12     4    1
    23    12    16   ar
    24    34    35   ar
    25     4     3   ar
    26    15    22    1
    27    15    16   ar
    28    22    23   ar
    29     2     3   ar
    30     2     7    1
    31    32    25    1
    32    32    36   ar
    33     3    11    1
    34    35    37    1
    35    35    36   ar
    36    25    24   ar
    37     7     8    3
    38    23    24   ar
    39    23    27    1
    40    11    10    3
    41    24    31    1
    42     8     9    1
    43    27    28    3
    44    31    30    3
    45    28    29    1
