@<TRIPOS>MOLECULE
mol_data/opt/m06hf/geoms/mol2/5ed5ed5ed5ed-.out
 42 45 0 0 0
SMALL
GASTEIGER

@<TRIPOS>ATOM
      1 C          -1.8227   -1.9831   -0.4093 C.ar    1  LIG1       -0.0070
      2 C          -0.5856   -1.9205    0.1627 C.ar    1  LIG1        0.0496
      3 C          -0.1218   -0.5601    0.2722 C.ar    1  LIG1        0.0824
      4 C          -1.0151    0.3501   -0.2251 C.ar    1  LIG1        0.0457
      5 S          -2.4252   -0.4356   -0.8281 S.2     1  LIG1       -0.0935
      6 H          -2.4002   -2.8723   -0.6030 H       1  LIG1        0.0706
      7 C           0.1659   -3.0548    0.6173 C.1     1  LIG1       -0.0678
      8 C           0.8085   -3.9910    1.0055 C.1     1  LIG1       -0.1139
      9 H           1.3838   -4.8176    1.3543 H       1  LIG1        0.1232
     10 N           2.1263    0.0543    1.3927 N.1     1  LIG1       -0.1908
     11 C           1.1293   -0.2084    0.8894 C.1     1  LIG1        0.1015
     12 C          -0.8661    1.8064   -0.2871 C.ar    1  LIG1        0.0444
     13 C           0.1910    2.5076   -0.8085 C.ar    1  LIG1        0.0579
     14 C          -0.0148    3.9284   -0.7073 C.ar    1  LIG1        0.0830
     15 C          -1.2069    4.2606   -0.1209 C.ar    1  LIG1        0.0463
     16 S          -2.0893    2.8526    0.3314 S.2     1  LIG1       -0.0846
     17 C           1.3389    1.9181   -1.4275 C.1     1  LIG1       -0.0672
     18 C           2.3069    1.4366   -1.9485 C.1     1  LIG1       -0.1138
     19 H           3.1723    1.0083   -2.4005 H       1  LIG1        0.1232
     20 N           1.6605    5.6480   -1.6663 N.1     1  LIG1       -0.1908
     21 C           0.9161    4.8901   -1.2340 C.1     1  LIG1        0.1016
     22 C          -1.7281    5.6038    0.1414 C.ar    1  LIG1        0.0444
     23 C          -1.0791    6.6276    0.7831 C.ar    1  LIG1        0.0579
     24 C          -1.9034    7.8043    0.8676 C.ar    1  LIG1        0.0830
     25 C          -3.1378    7.6410    0.2980 C.ar    1  LIG1        0.0463
     26 S          -3.3130    6.0615   -0.3635 S.2     1  LIG1       -0.0846
     27 C           0.2326    6.5348    1.3478 C.1     1  LIG1       -0.0672
     28 C           1.3330    6.4626    1.8221 C.1     1  LIG1       -0.1138
     29 H           2.3148    6.3987    2.2335 H       1  LIG1        0.1232
     30 N          -1.1478    9.9483    2.0979 N.1     1  LIG1       -0.1908
     31 C          -1.4855    9.0029    1.5440 C.1     1  LIG1        0.1016
     32 C          -4.2116    8.6324    0.1933 C.ar    1  LIG1        0.0438
     33 C          -4.1087    9.9014   -0.3159 C.ar    1  LIG1        0.0573
     34 C          -5.3743   10.5885   -0.2643 C.ar    1  LIG1        0.0747
     35 C          -6.3740    9.8271    0.2633 C.ar    1  LIG1       -0.0051
     36 S          -5.8164    8.2788    0.7215 S.2     1  LIG1       -0.0935
     37 H          -7.4036   10.1137    0.4061 H       1  LIG1        0.0707
     38 C          -2.9137   10.4699   -0.8615 C.1     1  LIG1       -0.0672
     39 C          -1.9135   10.9537   -1.3159 C.1     1  LIG1       -0.1138
     40 H          -1.0214   11.3856   -1.7093 H       1  LIG1        0.1232
     41 N          -5.7326   13.0045   -1.1158 N.1     1  LIG1       -0.1908
     42 C          -5.5679   11.9347   -0.7375 C.1     1  LIG1        0.1009
@<TRIPOS>BOND
     1    19    18    1
     2    18    17    3
     3    40    39    1
     4    20    21    3
     5    17    13    1
     6    39    38    3
     7    21    14    1
     8    41    42    3
     9    38    33    1
    10     5     1   ar
    11     5     4   ar
    12    13    14   ar
    13    13    12   ar
    14    42    34    1
    15    14    15   ar
    16     6     1    1
    17     1     2   ar
    18    26    22   ar
    19    26    25   ar
    20    33    34   ar
    21    33    32   ar
    22    12     4    1
    23    12    16   ar
    24    34    35   ar
    25     4     3   ar
    26    15    22    1
    27    15    16   ar
    28    22    23   ar
    29     2     3   ar
    30     2     7    1
    31    32    25    1
    32    32    36   ar
    33    35    37    1
    34    35    36   ar
    35     3    11    1
    36    25    24   ar
    37     7     8    3
    38    23    24   ar
    39    23    27    1
    40    24    31    1
    41    11    10    3
    42     8     9    1
    43    27    28    3
    44    31    30    3
    45    28    29    1
