@<TRIPOS>MOLECULE
mol_data/opt/m06hf/geoms/mol2/5ed5ed5ed-5ed-.out
 42 45 0 0 0
SMALL
GASTEIGER

@<TRIPOS>ATOM
      1 C          -1.8224   -1.9823   -0.4255 C.ar    1  LIG1       -0.0070
      2 C          -0.5921   -1.9212    0.1610 C.ar    1  LIG1        0.0496
      3 C          -0.1287   -0.5613    0.2776 C.ar    1  LIG1        0.0824
      4 C          -1.0155    0.3501   -0.2290 C.ar    1  LIG1        0.0457
      5 S          -2.4190   -0.4340   -0.8494 S.2     1  LIG1       -0.0935
      6 H          -2.3982   -2.8709   -0.6270 H       1  LIG1        0.0706
      7 C           0.1534   -3.0566    0.6230 C.1     1  LIG1       -0.0678
      8 C           0.7907   -3.9938    1.0176 C.1     1  LIG1       -0.1139
      9 H           1.3614   -4.8212    1.3721 H       1  LIG1        0.1232
     10 N           2.1065    0.0503    1.4250 N.1     1  LIG1       -0.1908
     11 C           1.1154   -0.2112    0.9098 C.1     1  LIG1        0.1015
     12 C          -0.8648    1.8064   -0.2876 C.ar    1  LIG1        0.0444
     13 C           0.1988    2.5075   -0.7957 C.ar    1  LIG1        0.0579
     14 C          -0.0073    3.9283   -0.6951 C.ar    1  LIG1        0.0830
     15 C          -1.2060    4.2606   -0.1223 C.ar    1  LIG1        0.0463
     16 S          -2.0944    2.8527    0.3179 S.2     1  LIG1       -0.0846
     17 C           1.3534    1.9179   -1.4019 C.1     1  LIG1       -0.0672
     18 C           2.3271    1.4364   -1.9121 C.1     1  LIG1       -0.1138
     19 H           3.1975    1.0080   -2.3545 H       1  LIG1        0.1232
     20 N           1.6802    5.6480   -1.6324 N.1     1  LIG1       -0.1908
     21 C           0.9304    4.8900   -1.2097 C.1     1  LIG1        0.1016
     22 C          -1.7293    5.6038    0.1354 C.ar    1  LIG1        0.0444
     23 C          -1.0872    6.6264    0.7859 C.ar    1  LIG1        0.0579
     24 C          -1.9116    7.8036    0.8622 C.ar    1  LIG1        0.0830
     25 C          -3.1394    7.6418    0.2780 C.ar    1  LIG1        0.0463
     26 S          -3.3079    6.0632   -0.3874 S.2     1  LIG1       -0.0846
     27 C           0.2178    6.5321    1.3658 C.1     1  LIG1       -0.0672
     28 C           1.3125    6.4586    1.8529 C.1     1  LIG1       -0.1138
     29 H           2.2894    6.3935    2.2757 H       1  LIG1        0.1232
     30 N          -1.1690    9.9456    2.1039 N.1     1  LIG1       -0.1908
     31 C          -1.5008    9.0010    1.5449 C.1     1  LIG1        0.1016
     32 C          -4.2112    8.6340    0.1620 C.ar    1  LIG1        0.0438
     33 C          -4.1015    9.9036   -0.3444 C.ar    1  LIG1        0.0573
     34 C          -5.3672   10.5915   -0.3068 C.ar    1  LIG1        0.0747
     35 C          -6.3735    9.8302    0.2081 C.ar    1  LIG1       -0.0051
     36 S          -5.8223    8.2809    0.6709 S.2     1  LIG1       -0.0935
     37 H          -7.4045   10.1172    0.3392 H       1  LIG1        0.0707
     38 C          -2.8999   10.4719   -0.8753 C.1     1  LIG1       -0.0672
     39 C          -1.8941   10.9556   -1.3174 C.1     1  LIG1       -0.1138
     40 H          -0.9971   11.3873   -1.6999 H       1  LIG1        0.1232
     41 N          -5.7139   13.0087   -1.1596 N.1     1  LIG1       -0.1908
     42 C          -5.5544   11.9383   -0.7806 C.1     1  LIG1        0.1009
@<TRIPOS>BOND
     1    19    18    1
     2    18    17    3
     3    40    39    1
     4    20    21    3
     5    17    13    1
     6    39    38    3
     7    21    14    1
     8    41    42    3
     9    38    33    1
    10     5     1   ar
    11     5     4   ar
    12    13    14   ar
    13    13    12   ar
    14    42    34    1
    15    14    15   ar
    16     6     1    1
    17     1     2   ar
    18    26    22   ar
    19    26    25   ar
    20    33    34   ar
    21    33    32   ar
    22    34    35   ar
    23    12     4    1
    24    12    16   ar
    25     4     3   ar
    26    15    22    1
    27    15    16   ar
    28    22    23   ar
    29     2     3   ar
    30     2     7    1
    31    32    25    1
    32    32    36   ar
    33    35    37    1
    34    35    36   ar
    35     3    11    1
    36    25    24   ar
    37     7     8    3
    38    23    24   ar
    39    23    27    1
    40    24    31    1
    41    11    10    3
    42     8     9    1
    43    27    28    3
    44    31    30    3
    45    28    29    1
