@<TRIPOS>MOLECULE
mol_data/opt/m06hf/geoms/mol2/5ee.out
 13 13 0 0 0
SMALL
GASTEIGER

@<TRIPOS>ATOM
      1 C          -2.1215   -1.7047    0.0002 C.ar    1  LIG1       -0.0077
      2 C          -0.7578   -1.6944   -0.0002 C.ar    1  LIG1        0.0470
      3 C          -0.2266   -0.3475   -0.0003 C.ar    1  LIG1        0.0470
      4 C          -1.2164    0.5908    0.0002 C.ar    1  LIG1       -0.0077
      5 S          -2.7757   -0.1205    0.0006 S.2     1  LIG1       -0.1026
      6 H          -2.7622   -2.5713    0.0004 H       1  LIG1        0.0706
      7 H          -1.0931    1.6614    0.0003 H       1  LIG1        0.0706
      8 C           0.0609   -2.8748   -0.0007 C.1     1  LIG1       -0.0679
      9 C           0.7533   -3.8563   -0.0010 C.1     1  LIG1       -0.1139
     10 H           1.3742   -4.7223   -0.0013 H       1  LIG1        0.1232
     11 C           1.1773   -0.0435   -0.0007 C.1     1  LIG1       -0.0679
     12 C           2.3533    0.2011   -0.0011 C.1     1  LIG1       -0.1139
     13 H           3.3981    0.4101   -0.0016 H       1  LIG1        0.1232
@<TRIPOS>BOND
     1    13    12    1
     2    10     9    1
     3    12    11    3
     4     9     8    3
     5    11     3    1
     6     8     2    1
     7     3     2   ar
     8     3     4   ar
     9     2     1   ar
    10     4     7    1
    11     4     5   ar
    12     1     6    1
    13     1     5   ar
