@<TRIPOS>MOLECULE
mol_data/opt/m06hf/geoms/mol2/5ee5ee5ee-5ee.out
 46 49 0 0 0
SMALL
GASTEIGER

@<TRIPOS>ATOM
      1 C          -0.9898   -1.3328    2.5745 C.ar    1  LIG1       -0.0071
      2 C          -0.6616   -1.6621    1.2924 C.ar    1  LIG1        0.0477
      3 C          -0.4209   -0.4940    0.4750 C.ar    1  LIG1        0.0553
      4 C          -0.5692    0.6695    1.1840 C.ar    1  LIG1        0.0437
      5 S          -1.0035    0.3606    2.8261 S.2     1  LIG1       -0.0936
      6 H          -1.2206   -2.0145    3.3766 H       1  LIG1        0.0706
      7 C          -0.5731   -3.0097    0.8047 C.1     1  LIG1       -0.0679
      8 C          -0.4970   -4.1372    0.3992 C.1     1  LIG1       -0.1139
      9 H          -0.4288   -5.1365    0.0368 H       1  LIG1        0.1232
     10 C          -0.1077   -0.5557   -0.9218 C.1     1  LIG1       -0.0673
     11 C           0.1457   -0.6112   -2.0940 C.1     1  LIG1       -0.1138
     12 H           0.3759   -0.6512   -3.1335 H       1  LIG1        0.1232
     13 C          -0.3956    2.0390    0.6901 C.ar    1  LIG1        0.0443
     14 C           0.7076    2.5632    0.0682 C.ar    1  LIG1        0.0559
     15 C           0.5239    3.9481   -0.2952 C.ar    1  LIG1        0.0559
     16 C          -0.7027    4.4266    0.0864 C.ar    1  LIG1        0.0443
     17 S          -1.6489    3.2103    0.8588 S.2     1  LIG1       -0.0846
     18 C           1.9213    1.8400   -0.1702 C.1     1  LIG1       -0.0673
     19 C           2.9437    1.2409   -0.3626 C.1     1  LIG1       -0.1138
     20 H           3.8464    0.7022   -0.5349 H       1  LIG1        0.1232
     21 C           1.5074    4.7179   -0.9972 C.1     1  LIG1       -0.0673
     22 C           2.3277    5.3623   -1.5914 C.1     1  LIG1       -0.1138
     23 H           3.0531    5.9423   -2.1128 H       1  LIG1        0.1232
     24 C          -1.2170    5.7867   -0.1006 C.ar    1  LIG1        0.0443
     25 C          -0.6286    6.9553    0.3088 C.ar    1  LIG1        0.0559
     26 C          -1.4015    8.1162   -0.0636 C.ar    1  LIG1        0.0559
     27 C          -2.5572    7.7815   -0.7202 C.ar    1  LIG1        0.0443
     28 S          -2.7110    6.0753   -0.9104 S.2     1  LIG1       -0.0846
     29 C           0.5986    7.0259    1.0447 C.1     1  LIG1       -0.0673
     30 C           1.6235    7.0831    1.6672 C.1     1  LIG1       -0.1138
     31 H           2.5368    7.1261    2.2137 H       1  LIG1        0.1232
     32 C          -0.9816    9.4605    0.1999 C.1     1  LIG1       -0.0673
     33 C          -0.6208   10.5854    0.4135 C.1     1  LIG1       -0.1138
     34 H          -0.3088   11.5858    0.6046 H       1  LIG1        0.1232
     35 C          -3.5833    8.6949   -1.2324 C.ar    1  LIG1        0.0437
     36 C          -4.2643    9.6559   -0.5316 C.ar    1  LIG1        0.0553
     37 C          -5.1981   10.3775   -1.3669 C.ar    1  LIG1        0.0477
     38 C          -5.1902    9.9265   -2.6540 C.ar    1  LIG1       -0.0071
     39 S          -4.0689    8.6541   -2.8886 S.2     1  LIG1       -0.0936
     40 H          -5.7940   10.2909   -3.4688 H       1  LIG1        0.0706
     41 C          -4.1087    9.8959    0.8724 C.1     1  LIG1       -0.0673
     42 C          -3.9876   10.0937    2.0504 C.1     1  LIG1       -0.1138
     43 H          -3.8701   10.2660    3.0951 H       1  LIG1        0.1232
     44 C          -6.0401   11.4387   -0.8908 C.1     1  LIG1       -0.0679
     45 C          -6.7430   12.3278   -0.4949 C.1     1  LIG1       -0.1139
     46 H          -7.3655   13.1164   -0.1411 H       1  LIG1        0.1232
@<TRIPOS>BOND
     1    40    38    1
     2    12    11    1
     3    39    38   ar
     4    39    35   ar
     5    38    37   ar
     6    23    22    1
     7    11    10    3
     8    22    21    3
     9    37    44    1
    10    37    36   ar
    11    35    27    1
    12    35    36   ar
    13    21    15    1
    14    10     3    1
    15    28    27   ar
    16    28    24   ar
    17    44    45    3
    18    27    26   ar
    19    20    19    1
    20    36    41    1
    21    45    46    1
    22    19    18    3
    23    15    14   ar
    24    15    16   ar
    25    18    14    1
    26    24    16    1
    27    24    25   ar
    28    26    32    1
    29    26    25   ar
    30     9     8    1
    31    14    13   ar
    32    16    17   ar
    33    32    33    3
    34    25    29    1
    35     8     7    3
    36    33    34    1
    37     3     4   ar
    38     3     2   ar
    39    13    17   ar
    40    13     4    1
    41     7     2    1
    42    41    42    3
    43    29    30    3
    44     4     5   ar
    45     2     1   ar
    46    30    31    1
    47    42    43    1
    48     1     5   ar
    49     1     6    1
