@<TRIPOS>MOLECULE
mol_data/opt/m06hf/geoms/mol2/5ee5ee-5ee.out
 35 37 0 0 0
SMALL
GASTEIGER

@<TRIPOS>ATOM
      1 C          -1.5172   -1.5910    1.7564 C.ar    1  LIG1       -0.0071
      2 C          -0.6827   -1.8147    0.7010 C.ar    1  LIG1        0.0477
      3 C          -0.2703   -0.5846    0.0629 C.ar    1  LIG1        0.0553
      4 C          -0.8080    0.5175    0.6743 C.ar    1  LIG1        0.0437
      5 S          -1.8119    0.0769    2.0073 S.2     1  LIG1       -0.0936
      6 H          -1.9676   -2.3358    2.3917 H       1  LIG1        0.0706
      7 C          -0.2684   -3.1177    0.2614 C.1     1  LIG1       -0.0679
      8 C           0.0816   -4.2055   -0.1072 C.1     1  LIG1       -0.1139
      9 H           0.3958   -5.1681   -0.4384 H       1  LIG1        0.1232
     10 C           0.5673   -0.5374   -1.0993 C.1     1  LIG1       -0.0673
     11 C           1.2618   -0.4994   -2.0783 C.1     1  LIG1       -0.1138
     12 H           1.8787   -0.4563   -2.9460 H       1  LIG1        0.1232
     13 C          -0.5964    1.9230    0.3156 C.ar    1  LIG1        0.0443
     14 C           0.6026    2.5745    0.1912 C.ar    1  LIG1        0.0559
     15 C           0.4387    3.9581   -0.1884 C.ar    1  LIG1        0.0559
     16 C          -0.8794    4.3114   -0.3127 C.ar    1  LIG1        0.0443
     17 S          -1.9277    2.9762    0.0014 S.2     1  LIG1       -0.0846
     18 C           1.8805    1.9740    0.4344 C.1     1  LIG1       -0.0673
     19 C           2.9548    1.4813    0.6444 C.1     1  LIG1       -0.1138
     20 H           3.9062    1.0394    0.8287 H       1  LIG1        0.1232
     21 C           1.5409    4.8405   -0.4316 C.1     1  LIG1       -0.0673
     22 C           2.4703    5.5706   -0.6417 C.1     1  LIG1       -0.1138
     23 H           3.2920    6.2227   -0.8261 H       1  LIG1        0.1232
     24 C          -1.4134    5.6286   -0.6712 C.ar    1  LIG1        0.0437
     25 C          -1.1482    6.8258   -0.0597 C.ar    1  LIG1        0.0553
     26 C          -1.8366    7.9255   -0.6977 C.ar    1  LIG1        0.0477
     27 C          -2.5958    7.5132   -1.7530 C.ar    1  LIG1       -0.0071
     28 S          -2.4926    5.8226   -2.0041 S.2     1  LIG1       -0.0936
     29 H          -3.2077    8.1322   -2.3882 H       1  LIG1        0.0706
     30 C          -0.3227    6.9754    1.1024 C.1     1  LIG1       -0.0673
     31 C           0.3616    7.1008    2.0814 C.1     1  LIG1       -0.1138
     32 H           0.9713    7.2027    2.9493 H       1  LIG1        0.1232
     33 C          -1.7381    9.2892   -0.2579 C.1     1  LIG1       -0.0679
     34 C          -1.6520   10.4287    0.1108 C.1     1  LIG1       -0.1139
     35 H          -1.5714   11.4379    0.4421 H       1  LIG1        0.1232
@<TRIPOS>BOND
     1    12    11    1
     2    29    27    1
     3    11    10    3
     4    28    27   ar
     5    28    24   ar
     6    27    26   ar
     7    10     3    1
     8    23    22    1
     9    26    33    1
    10    26    25   ar
    11    24    16    1
    12    24    25   ar
    13    22    21    3
    14     9     8    1
    15    21    15    1
    16    16    15   ar
    17    16    17   ar
    18    33    34    3
    19    15    14   ar
    20     8     7    3
    21    25    30    1
    22    17    13   ar
    23     3     4   ar
    24     3     2   ar
    25    34    35    1
    26    14    13   ar
    27    14    18    1
    28     7     2    1
    29    13     4    1
    30    18    19    3
    31    19    20    1
    32     4     5   ar
    33     2     1   ar
    34    30    31    3
    35     1     5   ar
    36     1     6    1
    37    31    32    1
