@<TRIPOS>MOLECULE
mol_data/opt/m06hf/geoms/mol2/5ee5ee-5ee5ee-.out
 46 49 0 0 0
SMALL
GASTEIGER

@<TRIPOS>ATOM
      1 C          -0.9332   -1.3269    2.5970 C.ar    1  LIG1       -0.0071
      2 C          -0.6280   -1.6584    1.3097 C.ar    1  LIG1        0.0477
      3 C          -0.4041   -0.4917    0.4857 C.ar    1  LIG1        0.0553
      4 C          -0.5411    0.6731    1.1948 C.ar    1  LIG1        0.0437
      5 S          -0.9447    0.3670    2.8452 S.2     1  LIG1       -0.0936
      6 H          -1.1482   -2.0072    3.4046 H       1  LIG1        0.0706
      7 C          -0.5465   -3.0070    0.8233 C.1     1  LIG1       -0.0679
      8 C          -0.4762   -4.1351    0.4189 C.1     1  LIG1       -0.1139
      9 H          -0.4132   -5.1351    0.0574 H       1  LIG1        0.1232
     10 C          -0.1165   -0.5560   -0.9166 C.1     1  LIG1       -0.0673
     11 C           0.1154   -0.6136   -2.0931 C.1     1  LIG1       -0.1138
     12 H           0.3265   -0.6555   -3.1365 H       1  LIG1        0.1232
     13 C          -0.3786    2.0418    0.6949 C.ar    1  LIG1        0.0443
     14 C           0.7122    2.5662    0.0517 C.ar    1  LIG1        0.0559
     15 C           0.5199    3.9501   -0.3111 C.ar    1  LIG1        0.0559
     16 C          -0.7003    4.4276    0.0919 C.ar    1  LIG1        0.0443
     17 S          -1.6303    3.2116    0.8841 S.2     1  LIG1       -0.0846
     18 C           1.9224    1.8442   -0.2074 C.1     1  LIG1       -0.0673
     19 C           2.9420    1.2462   -0.4172 C.1     1  LIG1       -0.1138
     20 H           3.8422    0.7085   -0.6050 H       1  LIG1        0.1232
     21 C           1.4892    4.7198   -1.0327 C.1     1  LIG1       -0.0673
     22 C           2.2975    5.3640   -1.6432 C.1     1  LIG1       -0.1138
     23 H           3.0124    5.9440   -2.1790 H       1  LIG1        0.1232
     24 C          -1.2199    5.7866   -0.0885 C.ar    1  LIG1        0.0443
     25 C          -0.6258    6.9568    0.3076 C.ar    1  LIG1        0.0559
     26 C          -1.4072    8.1159   -0.0530 C.ar    1  LIG1        0.0559
     27 C          -2.5742    7.7781   -0.6876 C.ar    1  LIG1        0.0443
     28 S          -2.7290    6.0713   -0.8714 S.2     1  LIG1       -0.0846
     29 C           0.6146    7.0309    1.0207 C.1     1  LIG1       -0.0673
     30 C           1.6507    7.0908    1.6242 C.1     1  LIG1       -0.1138
     31 H           2.5737    7.1363    2.1537 H       1  LIG1        0.1232
     32 C          -0.9844    9.4613    0.1999 C.1     1  LIG1       -0.0673
     33 C          -0.6215   10.5872    0.4044 C.1     1  LIG1       -0.1138
     34 H          -0.3075   11.5885    0.5876 H       1  LIG1        0.1232
     35 C          -3.6108    8.6890   -1.1828 C.ar    1  LIG1        0.0437
     36 C          -4.2803    9.6505   -0.4717 C.ar    1  LIG1        0.0553
     37 C          -5.2303   10.3689   -1.2913 C.ar    1  LIG1        0.0477
     38 C          -5.2454    9.9152   -2.5773 C.ar    1  LIG1       -0.0071
     39 S          -4.1267    8.6440   -2.8298 S.2     1  LIG1       -0.0936
     40 H          -5.8645   10.2770   -3.3817 H       1  LIG1        0.0706
     41 C          -4.0994    9.8936    0.9287 C.1     1  LIG1       -0.0673
     42 C          -3.9570   10.0942    2.1038 C.1     1  LIG1       -0.1138
     43 H          -3.8206   10.2688    3.1459 H       1  LIG1        0.1232
     44 C          -6.0650   11.4299   -0.8020 C.1     1  LIG1       -0.0679
     45 C          -6.7619   12.3189   -0.3952 C.1     1  LIG1       -0.1139
     46 H          -7.3790   13.1073   -0.0316 H       1  LIG1        0.1232
@<TRIPOS>BOND
     1    40    38    1
     2    12    11    1
     3    39    38   ar
     4    39    35   ar
     5    38    37   ar
     6    23    22    1
     7    11    10    3
     8    22    21    3
     9    37    44    1
    10    37    36   ar
    11    35    27    1
    12    35    36   ar
    13    21    15    1
    14    10     3    1
    15    28    27   ar
    16    28    24   ar
    17    44    45    3
    18    27    26   ar
    19    20    19    1
    20    36    41    1
    21    19    18    3
    22    45    46    1
    23    15    14   ar
    24    15    16   ar
    25    18    14    1
    26    24    16    1
    27    24    25   ar
    28    26    32    1
    29    26    25   ar
    30    14    13   ar
    31     9     8    1
    32    16    17   ar
    33    32    33    3
    34    25    29    1
    35    33    34    1
    36     8     7    3
    37     3     4   ar
    38     3     2   ar
    39    13    17   ar
    40    13     4    1
    41     7     2    1
    42    41    42    3
    43    29    30    3
    44     4     5   ar
    45     2     1   ar
    46    30    31    1
    47    42    43    1
    48     1     5   ar
    49     1     6    1
