@<TRIPOS>MOLECULE
mol_data/opt/m06hf/geoms/mol2/5ee5ee5ee5ee.out
 46 49 0 0 0
SMALL
GASTEIGER

@<TRIPOS>ATOM
      1 C          -1.8219   -1.9630    0.4035 C.ar    1  LIG1       -0.0071
      2 C          -0.5723   -1.9052   -0.1397 C.ar    1  LIG1        0.0477
      3 C          -0.0796   -0.5489   -0.2306 C.ar    1  LIG1        0.0553
      4 C          -0.9801    0.3592    0.2614 C.ar    1  LIG1        0.0437
      5 S          -2.4174   -0.4139    0.8254 S.2     1  LIG1       -0.0936
      6 H          -2.4112   -2.8488    0.5752 H       1  LIG1        0.0706
      7 C           0.1677   -3.0524   -0.5849 C.1     1  LIG1       -0.0679
      8 C           0.7892   -4.0096   -0.9576 C.1     1  LIG1       -0.1139
      9 H           1.3448   -4.8552   -1.2907 H       1  LIG1        0.1232
     10 C           1.1848   -0.2034   -0.8103 C.1     1  LIG1       -0.0673
     11 C           2.2408    0.0831   -1.3050 C.1     1  LIG1       -0.1138
     12 H           3.1772    0.3448   -1.7405 H       1  LIG1        0.1232
     13 C          -0.8273    1.8149    0.3348 C.ar    1  LIG1        0.0443
     14 C           0.1933    2.5169    0.9213 C.ar    1  LIG1        0.0559
     15 C           0.0127    3.9449    0.8067 C.ar    1  LIG1        0.0559
     16 C          -1.1376    4.2711    0.1362 C.ar    1  LIG1        0.0443
     17 S          -2.0013    2.8652   -0.3669 S.2     1  LIG1       -0.0846
     18 C           1.2869    1.9152    1.6243 C.1     1  LIG1       -0.0673
     19 C           2.2000    1.4142    2.2212 C.1     1  LIG1       -0.1138
     20 H           3.0087    0.9632    2.7479 H       1  LIG1        0.1232
     21 C           0.9085    4.9010    1.3866 C.1     1  LIG1       -0.0673
     22 C           1.6557    5.6994    1.8821 C.1     1  LIG1       -0.1138
     23 H           2.3157    6.4130    2.3177 H       1  LIG1        0.1232
     24 C          -1.6465    5.6125   -0.1596 C.ar    1  LIG1        0.0443
     25 C          -0.9871    6.6334   -0.7938 C.ar    1  LIG1        0.0559
     26 C          -1.8042    7.8171   -0.9211 C.ar    1  LIG1        0.0559
     27 C          -3.0522    7.6483   -0.3802 C.ar    1  LIG1        0.0443
     28 S          -3.2459    6.0730    0.2940 S.2     1  LIG1       -0.0846
     29 C           0.3378    6.5298   -1.3290 C.1     1  LIG1       -0.0673
     30 C           1.4441    6.4428   -1.7872 C.1     1  LIG1       -0.1138
     31 H           2.4270    6.3595   -2.1891 H       1  LIG1        0.1232
     32 C          -1.3700    9.0053   -1.5934 C.1     1  LIG1       -0.0673
     33 C          -1.0062    9.9965   -2.1646 C.1     1  LIG1       -0.1138
     34 H          -0.6897   10.8802   -2.6681 H       1  LIG1        0.1232
     35 C          -4.1418    8.6271   -0.3318 C.ar    1  LIG1        0.0437
     36 C          -4.0978    9.8977    0.1792 C.ar    1  LIG1        0.0553
     37 C          -5.3677   10.5775    0.0529 C.ar    1  LIG1        0.0477
     38 C          -6.3152    9.7919   -0.5345 C.ar    1  LIG1       -0.0071
     39 S          -5.7064    8.2479   -0.9562 S.2     1  LIG1       -0.0936
     40 H          -7.3392   10.0584   -0.7386 H       1  LIG1        0.0706
     41 C          -2.9482   10.4788    0.8074 C.1     1  LIG1       -0.0673
     42 C          -1.9898   10.9656    1.3428 C.1     1  LIG1       -0.1138
     43 H          -1.1348   11.3913    1.8147 H       1  LIG1        0.1232
     44 C          -5.6012   11.9191    0.5082 C.1     1  LIG1       -0.0679
     45 C          -5.7929   13.0412    0.8896 C.1     1  LIG1       -0.1139
     46 H          -5.9578   14.0368    1.2307 H       1  LIG1        0.1232
@<TRIPOS>BOND
     1    34    33    1
     2    31    30    1
     3    33    32    3
     4    30    29    3
     5    12    11    1
     6    32    26    1
     7    29    25    1
     8    11    10    3
     9     9     8    1
    10     8     7    3
    11    39    38   ar
    12    39    35   ar
    13    26    25   ar
    14    26    27   ar
    15    10     3    1
    16    25    24   ar
    17    40    38    1
    18     7     2    1
    19    38    37   ar
    20    27    35    1
    21    27    28   ar
    22    17    16   ar
    23    17    13   ar
    24    35    36   ar
    25     3     2   ar
    26     3     4   ar
    27    24    16    1
    28    24    28   ar
    29     2     1   ar
    30    37    36   ar
    31    37    44    1
    32    16    15   ar
    33    36    41    1
    34     4    13    1
    35     4     5   ar
    36    13    14   ar
    37     1     6    1
    38     1     5   ar
    39    44    45    3
    40    15    14   ar
    41    15    21    1
    42    41    42    3
    43    45    46    1
    44    14    18    1
    45    42    43    1
    46    21    22    3
    47    18    19    3
    48    22    23    1
    49    19    20    1
