@<TRIPOS>MOLECULE
mol_data/opt/m06hf/geoms/mol2/5ee5ee-5ee-5ee-.out
 46 49 0 0 0
SMALL
GASTEIGER

@<TRIPOS>ATOM
      1 C          -1.8657   -1.9666   -0.2676 C.ar    1  LIG1       -0.0071
      2 C          -0.6075   -1.9052    0.2550 C.ar    1  LIG1        0.0477
      3 C          -0.1064   -0.5501    0.3117 C.ar    1  LIG1        0.0553
      4 C          -1.0096    0.3532   -0.1840 C.ar    1  LIG1        0.0437
      5 S          -2.4596   -0.4227   -0.7104 S.2     1  LIG1       -0.0936
      6 H          -2.4622   -2.8523   -0.4128 H       1  LIG1        0.0706
      7 C           0.1333   -3.0476    0.7110 C.1     1  LIG1       -0.0679
      8 C           0.7556   -4.0008    1.0927 C.1     1  LIG1       -0.1139
      9 H           1.3117   -4.8428    1.4338 H       1  LIG1        0.1232
     10 C           1.1687   -0.2003    0.8649 C.1     1  LIG1       -0.0673
     11 C           2.2337    0.0899    1.3376 C.1     1  LIG1       -0.1138
     12 H           3.1782    0.3548    1.7531 H       1  LIG1        0.1232
     13 C          -0.8504    1.8063   -0.2882 C.ar    1  LIG1        0.0443
     14 C           0.1648    2.4910   -0.9041 C.ar    1  LIG1        0.0559
     15 C          -0.0064    3.9219   -0.8146 C.ar    1  LIG1        0.0559
     16 C          -1.1443    4.2677   -0.1327 C.ar    1  LIG1        0.0443
     17 S          -2.0076    2.8767    0.4110 S.2     1  LIG1       -0.0846
     18 C           1.2440    1.8695   -1.6120 C.1     1  LIG1       -0.0673
     19 C           2.1451    1.3519   -2.2130 C.1     1  LIG1       -0.1138
     20 H           2.9434    0.8856   -2.7421 H       1  LIG1        0.1232
     21 C           0.8853    4.8615   -1.4267 C.1     1  LIG1       -0.0673
     22 C           1.6290    5.6460   -1.9491 C.1     1  LIG1       -0.1138
     23 H           2.2859    6.3476   -2.4083 H       1  LIG1        0.1232
     24 C          -1.6413    5.6174    0.1447 C.ar    1  LIG1        0.0443
     25 C          -0.9665    6.6466    0.7487 C.ar    1  LIG1        0.0559
     26 C          -1.7749    7.8372    0.8656 C.ar    1  LIG1        0.0559
     27 C          -3.0321    7.6653    0.3474 C.ar    1  LIG1        0.0443
     28 S          -3.2449    6.0783   -0.2930 S.2     1  LIG1       -0.0846
     29 C           0.3660    6.5456    1.2653 C.1     1  LIG1       -0.0673
     30 C           1.4788    6.4611    1.7080 C.1     1  LIG1       -0.1138
     31 H           2.4673    6.3799    2.0965 H       1  LIG1        0.1232
     32 C          -1.3238    9.0357    1.5078 C.1     1  LIG1       -0.0673
     33 C          -0.9457   10.0356    2.0539 C.1     1  LIG1       -0.1138
     34 H          -0.6159   10.9272    2.5346 H       1  LIG1        0.1232
     35 C          -4.1169    8.6492    0.2966 C.ar    1  LIG1        0.0437
     36 C          -4.0737    9.9094   -0.2398 C.ar    1  LIG1        0.0553
     37 C          -5.3376   10.5990   -0.1073 C.ar    1  LIG1        0.0477
     38 C          -6.2803    9.8306    0.5099 C.ar    1  LIG1       -0.0071
     39 S          -5.6737    8.2916    0.9522 S.2     1  LIG1       -0.0936
     40 H          -7.2995   10.1072    0.7245 H       1  LIG1        0.0706
     41 C          -2.9306   10.4713   -0.8969 C.1     1  LIG1       -0.0673
     42 C          -1.9779   10.9419   -1.4563 C.1     1  LIG1       -0.1138
     43 H          -1.1278   11.3535   -1.9490 H       1  LIG1        0.1232
     44 C          -5.5706   11.9329   -0.5851 C.1     1  LIG1       -0.0679
     45 C          -5.7619   13.0485   -0.9854 C.1     1  LIG1       -0.1139
     46 H          -5.9264   14.0382   -1.3434 H       1  LIG1        0.1232
@<TRIPOS>BOND
     1    20    19    1
     2    23    22    1
     3    19    18    3
     4    22    21    3
     5    43    42    1
     6    18    14    1
     7    42    41    3
     8    21    15    1
     9    46    45    1
    10    45    44    3
    11    14    15   ar
    12    14    13   ar
    13    41    36    1
    14    15    16   ar
    15     5     1   ar
    16     5     4   ar
    17    44    37    1
    18     6     1    1
    19    28    24   ar
    20    28    27   ar
    21    13     4    1
    22    13    17   ar
    23     1     2   ar
    24    36    37   ar
    25    36    35   ar
    26     4     3   ar
    27    16    24    1
    28    16    17   ar
    29    37    38   ar
    30    24    25   ar
    31     2     3   ar
    32     2     7    1
    33    35    27    1
    34    35    39   ar
    35     3    10    1
    36    27    26   ar
    37    38    40    1
    38    38    39   ar
    39     7     8    3
    40    25    26   ar
    41    25    29    1
    42    10    11    3
    43    26    32    1
    44     8     9    1
    45    29    30    3
    46    11    12    1
    47    32    33    3
    48    30    31    1
    49    33    34    1
