@<TRIPOS>MOLECULE
mol_data/opt/m06hf/geoms/mol2/5ee5ee.out
 24 25 0 0 0
SMALL
GASTEIGER

@<TRIPOS>ATOM
      1 C          -1.9118   -1.7031    0.9366 C.ar    1  LIG1       -0.0071
      2 C          -0.7036   -1.8290    0.3174 C.ar    1  LIG1        0.0477
      3 C          -0.1932   -0.5576   -0.1463 C.ar    1  LIG1        0.0553
      4 C          -1.0383    0.4783    0.1549 C.ar    1  LIG1        0.0437
      5 S          -2.4470   -0.0765    0.9888 S.2     1  LIG1       -0.0936
      6 H          -2.5030   -2.4958    1.3641 H       1  LIG1        0.0706
      7 C          -0.0188   -3.0777    0.1319 C.1     1  LIG1       -0.0679
      8 C           0.5551   -4.1213   -0.0211 C.1     1  LIG1       -0.1139
      9 H           1.0668   -5.0455   -0.1592 H       1  LIG1        0.1232
     10 C           1.0339   -0.4169   -0.8729 C.1     1  LIG1       -0.0673
     11 C           2.0608   -0.3057   -1.4852 C.1     1  LIG1       -0.1138
     12 H           2.9747   -0.1981   -2.0219 H       1  LIG1        0.1232
     13 C          -0.8523    1.8995   -0.1500 C.ar    1  LIG1        0.0437
     14 C           0.2233    2.6874    0.1665 C.ar    1  LIG1        0.0553
     15 C           0.0599    4.0458   -0.3025 C.ar    1  LIG1        0.0477
     16 C          -1.1307    4.2296   -0.9408 C.ar    1  LIG1       -0.0071
     17 S          -2.0607    2.7923   -1.0047 S.2     1  LIG1       -0.0936
     18 H          -1.4944    5.1457   -1.3759 H       1  LIG1        0.0706
     19 C           1.3629    2.2411    0.9120 C.1     1  LIG1       -0.0673
     20 C           2.3182    1.8739    1.5401 C.1     1  LIG1       -0.1138
     21 H           3.1663    1.5388    2.0908 H       1  LIG1        0.1232
     22 C           1.0365    5.0800   -0.1038 C.1     1  LIG1       -0.0679
     23 C           1.8542    5.9438    0.0603 C.1     1  LIG1       -0.1139
     24 H           2.5817    6.7080    0.2084 H       1  LIG1        0.1232
@<TRIPOS>BOND
     1    12    11    1
     2    11    10    3
     3    18    16    1
     4    17    16   ar
     5    17    13   ar
     6    16    15   ar
     7    10     3    1
     8    15    22    1
     9    15    14   ar
    10     9     8    1
    11    13     4    1
    12    13    14   ar
    13     3     4   ar
    14     3     2   ar
    15    22    23    3
    16     8     7    3
    17    23    24    1
    18     7     2    1
    19     4     5   ar
    20    14    19    1
    21     2     1   ar
    22    19    20    3
    23     1     5   ar
    24     1     6    1
    25    20    21    1
