@<TRIPOS>MOLECULE
mol_data/opt/m06hf/geoms/mol2/5ee5ee5ee-5ee-.out
 46 49 0 0 0
SMALL
GASTEIGER

@<TRIPOS>ATOM
      1 C          -0.6389   -1.7047    2.0809 C.ar    1  LIG1       -0.0071
      2 C          -0.3930   -1.8327    0.7455 C.ar    1  LIG1        0.0477
      3 C          -0.2837   -0.5505    0.0867 C.ar    1  LIG1        0.0553
      4 C          -0.4430    0.4923    0.9609 C.ar    1  LIG1        0.0437
      5 S          -0.7310   -0.0656    2.5692 S.2     1  LIG1       -0.0936
      6 H          -0.7667   -2.5037    2.7927 H       1  LIG1        0.0706
      7 C          -0.2679   -3.0928    0.0675 C.1     1  LIG1       -0.0679
      8 C          -0.1623   -4.1485   -0.4952 C.1     1  LIG1       -0.1139
      9 H          -0.0682   -5.0847   -0.9957 H       1  LIG1        0.1232
     10 C          -0.0717   -0.3950   -1.3219 C.1     1  LIG1       -0.0673
     11 C           0.0997   -0.2628   -2.5029 C.1     1  LIG1       -0.1138
     12 H           0.2561   -0.1352   -3.5489 H       1  LIG1        0.1232
     13 C          -0.3841    1.9247    0.6565 C.ar    1  LIG1        0.0443
     14 C           0.6443    2.6043    0.0572 C.ar    1  LIG1        0.0559
     15 C           0.3561    4.0106   -0.0958 C.ar    1  LIG1        0.0559
     16 C          -0.8723    4.3464    0.4112 C.ar    1  LIG1        0.0443
     17 S          -1.6947    2.9729    1.0512 S.2     1  LIG1       -0.0846
     18 C           1.8792    2.0015   -0.3499 C.1     1  LIG1       -0.0673
     19 C           2.9165    1.4975   -0.6840 C.1     1  LIG1       -0.1138
     20 H           3.8325    1.0417   -0.9813 H       1  LIG1        0.1232
     21 C           1.2485    4.9339   -0.7313 C.1     1  LIG1       -0.0673
     22 C           1.9960    5.7012   -1.2734 C.1     1  LIG1       -0.1138
     23 H           2.6567    6.3875   -1.7497 H       1  LIG1        0.1232
     24 C          -1.4810    5.6787    0.4586 C.ar    1  LIG1        0.0443
     25 C          -0.9458    6.8121    1.0140 C.ar    1  LIG1        0.0559
     26 C          -1.8313    7.9470    0.9017 C.ar    1  LIG1        0.0559
     27 C          -3.0036    7.6306    0.2656 C.ar    1  LIG1        0.0443
     28 S          -3.0413    5.9719   -0.2104 S.2     1  LIG1       -0.0846
     29 C           0.3194    6.8599    1.6847 C.1     1  LIG1       -0.0673
     30 C           1.3764    6.8955    2.2526 C.1     1  LIG1       -0.1138
     31 H           2.3175    6.9204    2.7509 H       1  LIG1        0.1232
     32 C          -1.5325    9.2371    1.4495 C.1     1  LIG1       -0.0673
     33 C          -1.2813   10.3149    1.9152 C.1     1  LIG1       -0.1138
     34 H          -1.0642   11.2757    2.3214 H       1  LIG1        0.1232
     35 C          -4.1313    8.5217   -0.0200 C.ar    1  LIG1        0.0437
     36 C          -4.0993    9.7191   -0.6865 C.ar    1  LIG1        0.0553
     37 C          -5.4095   10.3242   -0.7777 C.ar    1  LIG1        0.0477
     38 C          -6.3715    9.5578   -0.1888 C.ar    1  LIG1       -0.0071
     39 S          -5.7311    8.1223    0.4908 S.2     1  LIG1       -0.0936
     40 H          -7.4243    9.7786   -0.1249 H       1  LIG1        0.0706
     41 C          -2.9205   10.2919   -1.2661 C.1     1  LIG1       -0.0673
     42 C          -1.9359   10.7717   -1.7586 C.1     1  LIG1       -0.1138
     43 H          -1.0577   11.1927   -2.1908 H       1  LIG1        0.1232
     44 C          -5.6651   11.5801   -1.4262 C.1     1  LIG1       -0.0679
     45 C          -5.8775   12.6311   -1.9668 C.1     1  LIG1       -0.1139
     46 H          -6.0599   13.5640   -2.4481 H       1  LIG1        0.1232
@<TRIPOS>BOND
     1    12    11    1
     2    11    10    3
     3    46    45    1
     4    43    42    1
     5    45    44    3
     6    42    41    3
     7    23    22    1
     8    44    37    1
     9    10     3    1
    10    22    21    3
    11    41    36    1
    12     9     8    1
    13    20    19    1
    14    37    36   ar
    15    37    38   ar
    16    21    15    1
    17    36    35   ar
    18    19    18    3
    19     8     7    3
    20    18    14    1
    21    28    27   ar
    22    28    24   ar
    23    38    40    1
    24    38    39   ar
    25    15    14   ar
    26    15    16   ar
    27    35    27    1
    28    35    39   ar
    29    14    13   ar
    30     7     2    1
    31     3     2   ar
    32     3     4   ar
    33    27    26   ar
    34    16    24    1
    35    16    17   ar
    36    24    25   ar
    37    13     4    1
    38    13    17   ar
    39     2     1   ar
    40    26    25   ar
    41    26    32    1
    42     4     5   ar
    43    25    29    1
    44    32    33    3
    45    29    30    3
    46    33    34    1
    47     1     5   ar
    48     1     6    1
    49    30    31    1
