@<TRIPOS>MOLECULE
mol_data/opt/m06hf/geoms/mol2/5ee5ee5ee-.out
 35 37 0 0 0
SMALL
GASTEIGER

@<TRIPOS>ATOM
      1 C          -1.5579   -1.5838    1.7488 C.ar    1  LIG1       -0.0071
      2 C          -0.7093   -1.8118    0.7057 C.ar    1  LIG1        0.0477
      3 C          -0.2838   -0.5842    0.0717 C.ar    1  LIG1        0.0553
      4 C          -0.8264    0.5207    0.6737 C.ar    1  LIG1        0.0437
      5 S          -1.8505    0.0855    1.9930 S.2     1  LIG1       -0.0936
      6 H          -2.0196   -2.3260    2.3788 H       1  LIG1        0.0706
      7 C          -0.2931   -3.1169    0.2740 C.1     1  LIG1       -0.0679
      8 C           0.0584   -4.2065   -0.0879 C.1     1  LIG1       -0.1139
      9 H           0.3741   -5.1706   -0.4131 H       1  LIG1        0.1232
     10 C           0.5703   -0.5415   -1.0786 C.1     1  LIG1       -0.0673
     11 C           1.2788   -0.5074   -2.0477 C.1     1  LIG1       -0.1138
     12 H           1.9081   -0.4677   -2.9067 H       1  LIG1        0.1232
     13 C          -0.6051    1.9249    0.3159 C.ar    1  LIG1        0.0443
     14 C           0.5978    2.5722    0.2074 C.ar    1  LIG1        0.0559
     15 C           0.4439    3.9558   -0.1765 C.ar    1  LIG1        0.0559
     16 C          -0.8711    4.3132   -0.3201 C.ar    1  LIG1        0.0443
     17 S          -1.9282    2.9821   -0.0187 S.2     1  LIG1       -0.0846
     18 C           1.8701    1.9679    0.4697 C.1     1  LIG1       -0.0673
     19 C           2.9396    1.4719    0.6956 C.1     1  LIG1       -0.1138
     20 H           3.8869    1.0272    0.8941 H       1  LIG1        0.1232
     21 C           1.5523    4.8341   -0.4055 C.1     1  LIG1       -0.0673
     22 C           2.4871    5.5608   -0.6035 C.1     1  LIG1       -0.1138
     23 H           3.3135    6.2099   -0.7772 H       1  LIG1        0.1232
     24 C          -1.3957    5.6316   -0.6881 C.ar    1  LIG1        0.0437
     25 C          -1.1351    6.8289   -0.0748 C.ar    1  LIG1        0.0553
     26 C          -1.8107    7.9298   -0.7242 C.ar    1  LIG1        0.0477
     27 C          -2.5563    7.5183   -1.7895 C.ar    1  LIG1       -0.0071
     28 S          -2.4552    5.8271   -2.0365 S.2     1  LIG1       -0.0936
     29 H          -3.1571    8.1383   -2.4343 H       1  LIG1        0.0706
     30 C          -0.3256    6.9777    1.0987 C.1     1  LIG1       -0.0673
     31 C           0.3451    7.1023    2.0870 C.1     1  LIG1       -0.1138
     32 H           0.9428    7.2036    2.9633 H       1  LIG1        0.1232
     33 C          -1.7140    9.2939   -0.2852 C.1     1  LIG1       -0.0679
     34 C          -1.6292   10.4337    0.0829 C.1     1  LIG1       -0.1139
     35 H          -1.5500   11.4432    0.4138 H       1  LIG1        0.1232
@<TRIPOS>BOND
     1    12    11    1
     2    29    27    1
     3    11    10    3
     4    28    27   ar
     5    28    24   ar
     6    27    26   ar
     7    10     3    1
     8    23    22    1
     9    26    33    1
    10    26    25   ar
    11    24    16    1
    12    24    25   ar
    13    22    21    3
    14     9     8    1
    15    21    15    1
    16    16    15   ar
    17    16    17   ar
    18    33    34    3
    19    15    14   ar
    20     8     7    3
    21    25    30    1
    22    17    13   ar
    23     3     4   ar
    24     3     2   ar
    25    34    35    1
    26    14    13   ar
    27    14    18    1
    28     7     2    1
    29    13     4    1
    30    18    19    3
    31     4     5   ar
    32    19    20    1
    33     2     1   ar
    34    30    31    3
    35     1     5   ar
    36     1     6    1
    37    31    32    1
