@<TRIPOS>MOLECULE
mol_data/opt/m06hf/geoms/mol2/5ee5ee5ee5ee-.out
 46 49 0 0 0
SMALL
GASTEIGER

@<TRIPOS>ATOM
      1 C          -1.7810   -1.9596    0.5005 C.ar    1  LIG1       -0.0071
      2 C          -0.5507   -1.9040   -0.0854 C.ar    1  LIG1        0.0477
      3 C          -0.0668   -0.5471   -0.2093 C.ar    1  LIG1        0.0553
      4 C          -0.9537    0.3637    0.3020 C.ar    1  LIG1        0.0437
      5 S          -2.3679   -0.4076    0.9236 S.2     1  LIG1       -0.0936
      6 H          -2.3606   -2.8454    0.7027 H       1  LIG1        0.0706
      7 C           0.1783   -3.0539   -0.5415 C.1     1  LIG1       -0.0679
      8 C           0.7908   -4.0133   -0.9235 C.1     1  LIG1       -0.1139
      9 H           1.3379   -4.8609   -1.2653 H       1  LIG1        0.1232
     10 C           1.1759   -0.2042   -0.8356 C.1     1  LIG1       -0.0673
     11 C           2.2134    0.0800   -1.3692 C.1     1  LIG1       -0.1138
     12 H           3.1336    0.3398   -1.8391 H       1  LIG1        0.1232
     13 C          -0.8042    1.8206    0.3527 C.ar    1  LIG1        0.0443
     14 C           0.2330    2.5333    0.8958 C.ar    1  LIG1        0.0559
     15 C           0.0431    3.9591    0.7701 C.ar    1  LIG1        0.0559
     16 C          -1.1304    4.2732    0.1349 C.ar    1  LIG1        0.0443
     17 S          -2.0052    2.8583   -0.3215 S.2     1  LIG1       -0.0846
     18 C           1.3521    1.9439    1.5686 C.1     1  LIG1       -0.0673
     19 C           2.2868    1.4534    2.1401 C.1     1  LIG1       -0.1138
     20 H           3.1148    1.0110    2.6434 H       1  LIG1        0.1232
     21 C           0.9543    4.9253    1.3077 C.1     1  LIG1       -0.0673
     22 C           1.7148    5.7324    1.7678 C.1     1  LIG1       -0.1138
     23 H           2.3863    6.4538    2.1717 H       1  LIG1        0.1232
     24 C          -1.6541    5.6092   -0.1597 C.ar    1  LIG1        0.0443
     25 C          -1.0204    6.6244   -0.8283 C.ar    1  LIG1        0.0559
     26 C          -1.8456    7.8037   -0.9422 C.ar    1  LIG1        0.0559
     27 C          -3.0740    7.6375   -0.3573 C.ar    1  LIG1        0.0443
     28 S          -3.2389    6.0699    0.3422 S.2     1  LIG1       -0.0846
     29 C           0.2861    6.5185   -1.4068 C.1     1  LIG1       -0.0673
     30 C           1.3766    6.4295   -1.9011 C.1     1  LIG1       -0.1138
     31 H           2.3455    6.3445   -2.3353 H       1  LIG1        0.1232
     32 C          -1.4389    8.9850   -1.6432 C.1     1  LIG1       -0.0673
     33 C          -1.0982    9.9703   -2.2383 C.1     1  LIG1       -0.1138
     34 H          -0.8016   10.8489   -2.7624 H       1  LIG1        0.1232
     35 C          -4.1649    8.6132   -0.2837 C.ar    1  LIG1        0.0437
     36 C          -4.1081    9.8901    0.2102 C.ar    1  LIG1        0.0553
     37 C          -5.3839   10.5643    0.1189 C.ar    1  LIG1        0.0477
     38 C          -6.3480    9.7686   -0.4265 C.ar    1  LIG1       -0.0071
     39 S          -5.7484    8.2215   -0.8499 S.2     1  LIG1       -0.0936
     40 H          -7.3793   10.0294   -0.5989 H       1  LIG1        0.0706
     41 C          -2.9399   10.4824    0.7920 C.1     1  LIG1       -0.0673
     42 C          -1.9656   10.9787    1.2886 C.1     1  LIG1       -0.1138
     43 H          -1.0965   11.4131    1.7255 H       1  LIG1        0.1232
     44 C          -5.6067   11.9106    0.5657 C.1     1  LIG1       -0.0679
     45 C          -5.7894   13.0367    0.9398 C.1     1  LIG1       -0.1139
     46 H          -5.9461   14.0358    1.2743 H       1  LIG1        0.1232
@<TRIPOS>BOND
     1    34    33    1
     2    31    30    1
     3    33    32    3
     4    30    29    3
     5    12    11    1
     6    32    26    1
     7    29    25    1
     8    11    10    3
     9     9     8    1
    10    26    25   ar
    11    26    27   ar
    12     8     7    3
    13    39    38   ar
    14    39    35   ar
    15    10     3    1
    16    25    24   ar
    17    40    38    1
    18     7     2    1
    19    38    37   ar
    20    27    35    1
    21    27    28   ar
    22    17    16   ar
    23    17    13   ar
    24    35    36   ar
    25     3     2   ar
    26     3     4   ar
    27    24    16    1
    28    24    28   ar
    29     2     1   ar
    30    37    36   ar
    31    37    44    1
    32    16    15   ar
    33    36    41    1
    34     4    13    1
    35     4     5   ar
    36    13    14   ar
    37     1     6    1
    38     1     5   ar
    39    44    45    3
    40    15    14   ar
    41    15    21    1
    42    41    42    3
    43    14    18    1
    44    45    46    1
    45    42    43    1
    46    21    22    3
    47    18    19    3
    48    22    23    1
    49    19    20    1
