@<TRIPOS>MOLECULE
mol_data/opt/m06hf/geoms/mol2/5ee5ee-5ee-5ee.out
 46 49 0 0 0
SMALL
GASTEIGER

@<TRIPOS>ATOM
      1 C          -2.0737   -1.8104    0.2439 C.ar    1  LIG1       -0.0071
      2 C          -0.8317   -1.7458    0.8033 C.ar    1  LIG1        0.0477
      3 C          -0.2509   -0.4265    0.6892 C.ar    1  LIG1        0.0553
      4 C          -1.0817    0.4464    0.0361 C.ar    1  LIG1        0.0437
      5 S          -2.5578   -0.3145   -0.4348 S.2     1  LIG1       -0.0936
      6 H          -2.7192   -2.6723    0.2012 H       1  LIG1        0.0706
      7 C          -0.1783   -2.8527    1.4442 C.1     1  LIG1       -0.0679
      8 C           0.3695   -3.7783    1.9784 C.1     1  LIG1       -0.1139
      9 H           0.8601   -4.5955    2.4545 H       1  LIG1        0.1232
     10 C           1.0257   -0.0734    1.2366 C.1     1  LIG1       -0.0673
     11 C           2.0930    0.2207    1.7021 C.1     1  LIG1       -0.1138
     12 H           3.0399    0.4881    2.1108 H       1  LIG1        0.1232
     13 C          -0.8313    1.8584   -0.2654 C.ar    1  LIG1        0.0443
     14 C           0.2422    2.3914   -0.9305 C.ar    1  LIG1        0.0559
     15 C           0.1538    3.8275   -1.0507 C.ar    1  LIG1        0.0559
     16 C          -0.9836    4.3282   -0.4719 C.ar    1  LIG1        0.0443
     17 S          -1.9446    3.0815    0.2285 S.2     1  LIG1       -0.0846
     18 C           1.3060    1.6170   -1.4983 C.1     1  LIG1       -0.0673
     19 C           2.1958    0.9709   -1.9807 C.1     1  LIG1       -0.1138
     20 H           2.9841    0.3907   -2.4014 H       1  LIG1        0.1232
     21 C           1.1187    4.6234   -1.7496 C.1     1  LIG1       -0.0673
     22 C           1.9219    5.2916   -2.3408 C.1     1  LIG1       -0.1138
     23 H           2.6328    5.8913   -2.8599 H       1  LIG1        0.1232
     24 C          -1.4064    5.7307   -0.4242 C.ar    1  LIG1        0.0443
     25 C          -0.6950    6.7981    0.0589 C.ar    1  LIG1        0.0559
     26 C          -1.4116    8.0428   -0.0862 C.ar    1  LIG1        0.0559
     27 C          -2.6462    7.8689   -0.6557 C.ar    1  LIG1        0.0443
     28 S          -2.9458    6.2134   -1.0320 S.2     1  LIG1       -0.0846
     29 C           0.5996    6.6992    0.6649 C.1     1  LIG1       -0.0673
     30 C           1.6800    6.6211    1.1823 C.1     1  LIG1       -0.1138
     31 H           2.6405    6.5463    1.6366 H       1  LIG1        0.1232
     32 C          -0.8743    9.3141    0.2998 C.1     1  LIG1       -0.0673
     33 C          -0.4215   10.3803    0.6159 C.1     1  LIG1       -0.1138
     34 H          -0.0290   11.3303    0.8963 H       1  LIG1        0.1232
     35 C          -3.6442    8.9028   -0.9440 C.ar    1  LIG1        0.0437
     36 C          -4.1934    9.7967   -0.0629 C.ar    1  LIG1        0.0553
     37 C          -5.1381   10.6822   -0.7059 C.ar    1  LIG1        0.0477
     38 C          -5.2692   10.4143   -2.0368 C.ar    1  LIG1       -0.0071
     39 S          -4.2667    9.1198   -2.5397 S.2     1  LIG1       -0.0936
     40 H          -5.9098   10.9244   -2.7373 H       1  LIG1        0.0706
     41 C          -3.8986    9.8299    1.3391 C.1     1  LIG1       -0.0673
     42 C          -3.6549    9.8523    2.5145 C.1     1  LIG1       -0.1138
     43 H          -3.4294    9.8671    3.5556 H       1  LIG1        0.1232
     44 C          -5.8610   11.7153   -0.0179 C.1     1  LIG1       -0.0679
     45 C          -6.4664   12.5812    0.5531 C.1     1  LIG1       -0.1139
     46 H          -7.0029   13.3490    1.0614 H       1  LIG1        0.1232
@<TRIPOS>BOND
     1    23    22    1
     2    40    38    1
     3    39    38   ar
     4    39    35   ar
     5    20    19    1
     6    22    21    3
     7    38    37   ar
     8    19    18    3
     9    21    15    1
    10    18    14    1
    11    15    14   ar
    12    15    16   ar
    13    28    27   ar
    14    28    24   ar
    15    35    27    1
    16    35    36   ar
    17    14    13   ar
    18    37    36   ar
    19    37    44    1
    20    27    26   ar
    21    16    24    1
    22    16    17   ar
    23     5     4   ar
    24     5     1   ar
    25    24    25   ar
    26    13     4    1
    27    13    17   ar
    28    26    25   ar
    29    26    32    1
    30    36    41    1
    31    44    45    3
    32     4     3   ar
    33    25    29    1
    34     6     1    1
    35     1     2   ar
    36    32    33    3
    37    45    46    1
    38    33    34    1
    39    29    30    3
    40     3     2   ar
    41     3    10    1
    42     2     7    1
    43    30    31    1
    44    10    11    3
    45    41    42    3
    46     7     8    3
    47    11    12    1
    48     8     9    1
    49    42    43    1
