@<TRIPOS>MOLECULE
mol_data/opt/m06hf/geoms/mol2/5ee5ee-.out
 24 25 0 0 0
SMALL
GASTEIGER

@<TRIPOS>ATOM
      1 C          -1.9033   -1.7039    0.9422 C.ar    1  LIG1       -0.0071
      2 C          -0.7005   -1.8293    0.3126 C.ar    1  LIG1        0.0477
      3 C          -0.1942   -0.5576   -0.1548 C.ar    1  LIG1        0.0553
      4 C          -1.0369    0.4780    0.1541 C.ar    1  LIG1        0.0437
      5 S          -2.4383   -0.0774    0.9997 S.2     1  LIG1       -0.0936
      6 H          -2.4908   -2.4969    1.3742 H       1  LIG1        0.0706
      7 C          -0.0171   -3.0778    0.1207 C.1     1  LIG1       -0.0679
      8 C           0.5557   -4.1212   -0.0377 C.1     1  LIG1       -0.1139
      9 H           1.0663   -5.0453   -0.1805 H       1  LIG1        0.1232
     10 C           1.0266   -0.4163   -0.8918 C.1     1  LIG1       -0.0673
     11 C           2.0483   -0.3047   -1.5127 C.1     1  LIG1       -0.1138
     12 H           2.9576   -0.1967   -2.0571 H       1  LIG1        0.1232
     13 C          -0.8537    1.8994   -0.1517 C.ar    1  LIG1        0.0437
     14 C           0.2245    2.6874    0.1560 C.ar    1  LIG1        0.0553
     15 C           0.0569    4.0459   -0.3109 C.ar    1  LIG1        0.0477
     16 C          -1.1392    4.2299   -0.9391 C.ar    1  LIG1       -0.0071
     17 S          -2.0694    2.7924   -0.9957 S.2     1  LIG1       -0.0936
     18 H          -1.5067    5.1461   -1.3705 H       1  LIG1        0.0706
     19 C           1.3704    2.2408    0.8916 C.1     1  LIG1       -0.0673
     20 C           2.3311    1.8735    1.5113 C.1     1  LIG1       -0.1138
     21 H           3.1839    1.5383    2.0546 H       1  LIG1        0.1232
     22 C           1.0349    5.0802   -0.1201 C.1     1  LIG1       -0.0679
     23 C           1.8539    5.9440    0.0375 C.1     1  LIG1       -0.1139
     24 H           2.5825    6.7083    0.1797 H       1  LIG1        0.1232
@<TRIPOS>BOND
     1    12    11    1
     2    11    10    3
     3    18    16    1
     4    17    16   ar
     5    17    13   ar
     6    16    15   ar
     7    10     3    1
     8    15    22    1
     9    15    14   ar
    10     9     8    1
    11     3     4   ar
    12     3     2   ar
    13    13     4    1
    14    13    14   ar
    15    22    23    3
    16     8     7    3
    17    23    24    1
    18     7     2    1
    19     4     5   ar
    20    14    19    1
    21     2     1   ar
    22    19    20    3
    23     1     5   ar
    24     1     6    1
    25    20    21    1
