@<TRIPOS>MOLECULE
mol_data/opt/m06hf/geoms/mol2/5ee5ee-5ee-.out
 35 37 0 0 0
SMALL
GASTEIGER

@<TRIPOS>ATOM
      1 C          -1.8225   -1.8937   -0.6401 C.ar    1  LIG1       -0.0071
      2 C          -0.7256   -1.8286    0.1674 C.ar    1  LIG1        0.0477
      3 C          -0.2287   -0.4775    0.3044 C.ar    1  LIG1        0.0553
      4 C          -0.9715    0.4195   -0.4180 C.ar    1  LIG1        0.0437
      5 S          -2.2673   -0.3577   -1.2537 S.2     1  LIG1       -0.0936
      6 H          -2.3823   -2.7775   -0.8984 H       1  LIG1        0.0706
      7 C          -0.1363   -2.9641    0.8197 C.1     1  LIG1       -0.0679
      8 C           0.3593   -3.9117    1.3658 C.1     1  LIG1       -0.1139
      9 H           0.8016   -4.7496    1.8526 H       1  LIG1        0.1232
     10 C           0.8836   -0.1228    1.1357 C.1     1  LIG1       -0.0673
     11 C           1.8113    0.1731    1.8385 C.1     1  LIG1       -0.1138
     12 H           2.6345    0.4444    2.4579 H       1  LIG1        0.1232
     13 C          -0.7657    1.8666   -0.5249 C.ar    1  LIG1        0.0443
     14 C           0.3784    2.5189   -0.9055 C.ar    1  LIG1        0.0559
     15 C           0.2156    3.9534   -0.9076 C.ar    1  LIG1        0.0559
     16 C          -1.0457    4.3337   -0.5284 C.ar    1  LIG1        0.0443
     17 S          -2.0364    2.9724   -0.1563 S.2     1  LIG1       -0.0846
     18 C           1.5827    1.8607   -1.3170 C.1     1  LIG1       -0.0673
     19 C           2.5882    1.3084   -1.6707 C.1     1  LIG1       -0.1138
     20 H           3.4787    0.8122   -1.9799 H       1  LIG1        0.1232
     21 C           1.2419    4.8636   -1.3213 C.1     1  LIG1       -0.0673
     22 C           2.0982    5.6262   -1.6768 C.1     1  LIG1       -0.1138
     23 H           2.8548    6.3086   -1.9876 H       1  LIG1        0.1232
     24 C          -1.5706    5.6983   -0.4255 C.ar    1  LIG1        0.0437
     25 C          -1.0479    6.7409    0.2942 C.ar    1  LIG1        0.0553
     26 C          -1.8348    7.9459    0.1536 C.ar    1  LIG1        0.0477
     27 C          -2.9182    7.7613   -0.6538 C.ar    1  LIG1       -0.0071
     28 S          -3.0072    6.1630   -1.2630 S.2     1  LIG1       -0.0936
     29 H          -3.6616    8.4965   -0.9144 H       1  LIG1        0.0706
     30 C           0.1153    6.6467    1.1262 C.1     1  LIG1       -0.0673
     31 C           1.0854    6.5681    1.8295 C.1     1  LIG1       -0.1138
     32 H           1.9482    6.4899    2.4496 H       1  LIG1        0.1232
     33 C          -1.5152    9.1864    0.8026 C.1     1  LIG1       -0.0679
     34 C          -1.2447   10.2224    1.3458 C.1     1  LIG1       -0.1139
     35 H          -1.0013   11.1393    1.8304 H       1  LIG1        0.1232
@<TRIPOS>BOND
     1    23    22    1
     2    20    19    1
     3    22    21    3
     4    19    18    3
     5    21    15    1
     6    18    14    1
     7    28    27   ar
     8    28    24   ar
     9     5     1   ar
    10     5     4   ar
    11    29    27    1
    12    15    14   ar
    13    15    16   ar
    14    14    13   ar
    15     6     1    1
    16    27    26   ar
    17     1     2   ar
    18    16    24    1
    19    16    17   ar
    20    13     4    1
    21    13    17   ar
    22    24    25   ar
    23     4     3   ar
    24    26    25   ar
    25    26    33    1
    26     2     3   ar
    27     2     7    1
    28    25    30    1
    29     3    10    1
    30    33    34    3
    31     7     8    3
    32    30    31    3
    33    10    11    3
    34    34    35    1
    35     8     9    1
    36    31    32    1
    37    11    12    1
