@<TRIPOS>MOLECULE
mol_data/opt/m06hf/geoms/mol2/5ee5ee5ee.out
 35 37 0 0 0
SMALL
GASTEIGER

@<TRIPOS>ATOM
      1 C          -1.8016   -1.9039    0.6189 C.ar    1  LIG1       -0.0071
      2 C          -0.6894   -1.8322   -0.1667 C.ar    1  LIG1        0.0477
      3 C          -0.1987   -0.4780   -0.2950 C.ar    1  LIG1        0.0553
      4 C          -0.9615    0.4146    0.4119 C.ar    1  LIG1        0.0437
      5 S          -2.2684   -0.3705    1.2225 S.2     1  LIG1       -0.0936
      6 H          -2.3606   -2.7913    0.8669 H       1  LIG1        0.0706
      7 C          -0.0799   -2.9643   -0.8063 C.1     1  LIG1       -0.0679
      8 C           0.4325   -3.9090   -1.3417 C.1     1  LIG1       -0.1139
      9 H           0.8899   -4.7443   -1.8191 H       1  LIG1        0.1232
     10 C           0.9274   -0.1166   -1.1044 C.1     1  LIG1       -0.0673
     11 C           1.8668    0.1849   -1.7890 C.1     1  LIG1       -0.1138
     12 H           2.7003    0.4612   -2.3923 H       1  LIG1        0.1232
     13 C          -0.7673    1.8631    0.5216 C.ar    1  LIG1        0.0443
     14 C           0.3647    2.5231    0.9242 C.ar    1  LIG1        0.0559
     15 C           0.1925    3.9566    0.9219 C.ar    1  LIG1        0.0559
     16 C          -1.0635    4.3284    0.5176 C.ar    1  LIG1        0.0443
     17 S          -2.0377    2.9603    0.1271 S.2     1  LIG1       -0.0846
     18 C           1.5649    1.8732    1.3599 C.1     1  LIG1       -0.0673
     19 C           2.5669    1.3278    1.7338 C.1     1  LIG1       -0.1138
     20 H           3.4542    0.8374    2.0609 H       1  LIG1        0.1232
     21 C           1.2044    4.8738    1.3550 C.1     1  LIG1       -0.0673
     22 C           2.0486    5.6422    1.7267 C.1     1  LIG1       -0.1138
     23 H           2.7945    6.3297    2.0517 H       1  LIG1        0.1232
     24 C          -1.5952    5.6893    0.4033 C.ar    1  LIG1        0.0437
     25 C          -1.0653    6.7349   -0.3067 C.ar    1  LIG1        0.0553
     26 C          -1.8628    7.9348   -0.1827 C.ar    1  LIG1        0.0477
     27 C          -2.9607    7.7435    0.6032 C.ar    1  LIG1       -0.0071
     28 S          -3.0512    6.1451    1.2119 S.2     1  LIG1       -0.0936
     29 H          -3.7140    8.4740    0.8485 H       1  LIG1        0.0706
     30 C           0.1147    6.6479   -1.1155 C.1     1  LIG1       -0.0673
     31 C           1.0991    6.5753   -1.7995 C.1     1  LIG1       -0.1138
     32 H           1.9745    6.5023   -2.4022 H       1  LIG1        0.1232
     33 C          -1.5386    9.1770   -0.8262 C.1     1  LIG1       -0.0679
     34 C          -1.2643   10.2144   -1.3648 C.1     1  LIG1       -0.1139
     35 H          -1.0174   11.1326   -1.8452 H       1  LIG1        0.1232
@<TRIPOS>BOND
     1    32    31    1
     2    12    11    1
     3    35    34    1
     4     9     8    1
     5    31    30    3
     6    11    10    3
     7    34    33    3
     8     8     7    3
     9    30    25    1
    10    10     3    1
    11    33    26    1
    12     7     2    1
    13    25    26   ar
    14    25    24   ar
    15     3     2   ar
    16     3     4   ar
    17    26    27   ar
    18     2     1   ar
    19    17    16   ar
    20    17    13   ar
    21    24    16    1
    22    24    28   ar
    23     4    13    1
    24     4     5   ar
    25    16    15   ar
    26    13    14   ar
    27    27    29    1
    28    27    28   ar
    29     1     6    1
    30     1     5   ar
    31    15    14   ar
    32    15    21    1
    33    14    18    1
    34    21    22    3
    35    18    19    3
    36    22    23    1
    37    19    20    1
