@<TRIPOS>MOLECULE
mol_data/opt/m06hf/geoms/mol2/5ee5ee-5ee5ee.out
 46 49 0 0 0
SMALL
GASTEIGER

@<TRIPOS>ATOM
      1 C          -1.8729   -1.9595    0.4113 C.ar    1  LIG1       -0.0071
      2 C          -0.6184   -1.9097   -0.1214 C.ar    1  LIG1        0.0477
      3 C          -0.1160   -0.5566   -0.2072 C.ar    1  LIG1        0.0553
      4 C          -1.0145    0.3571    0.2781 C.ar    1  LIG1        0.0437
      5 S          -2.4615   -0.4068    0.8295 S.2     1  LIG1       -0.0936
      6 H          -2.4694   -2.8415    0.5774 H       1  LIG1        0.0706
      7 C           0.1175   -3.0616   -0.5613 C.1     1  LIG1       -0.0679
      8 C           0.7358   -4.0226   -0.9296 C.1     1  LIG1       -0.1139
      9 H           1.2883   -4.8716   -1.2589 H       1  LIG1        0.1232
     10 C           1.1554   -0.2191   -0.7760 C.1     1  LIG1       -0.0673
     11 C           2.2174    0.0607   -1.2618 C.1     1  LIG1       -0.1138
     12 H           3.1592    0.3165   -1.6891 H       1  LIG1        0.1232
     13 C          -0.8525    1.8116    0.3539 C.ar    1  LIG1        0.0443
     14 C           0.1679    2.5063    0.9494 C.ar    1  LIG1        0.0559
     15 C          -0.0020    3.9355    0.8344 C.ar    1  LIG1        0.0559
     16 C          -1.1443    4.2701    0.1544 C.ar    1  LIG1        0.0443
     17 S          -2.0134    2.8704   -0.3568 S.2     1  LIG1       -0.0846
     18 C           1.2515    1.8966    1.6611 C.1     1  LIG1       -0.0673
     19 C           2.1563    1.3891    2.2651 C.1     1  LIG1       -0.1138
     20 H           2.9578    0.9316    2.7970 H       1  LIG1        0.1232
     21 C           0.8954    4.8852    1.4223 C.1     1  LIG1       -0.0673
     22 C           1.6439    5.6783    1.9245 C.1     1  LIG1       -0.1138
     23 H           2.3050    6.3874    2.3657 H       1  LIG1        0.1232
     24 C          -1.6416    5.6151   -0.1447 C.ar    1  LIG1        0.0443
     25 C          -0.9699    6.6318   -0.7727 C.ar    1  LIG1        0.0559
     26 C          -1.7776    7.8212   -0.9060 C.ar    1  LIG1        0.0559
     27 C          -3.0312    7.6608   -0.3756 C.ar    1  LIG1        0.0443
     28 S          -3.2414    6.0864    0.2959 S.2     1  LIG1       -0.0846
     29 C           0.3587    6.5192   -1.2970 C.1     1  LIG1       -0.0673
     30 C           1.4682    6.4248   -1.7460 C.1     1  LIG1       -0.1138
     31 H           2.4536    6.3349   -2.1401 H       1  LIG1        0.1232
     32 C          -1.3296    9.0068   -1.5739 C.1     1  LIG1       -0.0673
     33 C          -0.9541    9.9958   -2.1413 C.1     1  LIG1       -0.1138
     34 H          -0.6267   10.8777   -2.6410 H       1  LIG1        0.1232
     35 C          -4.1143    8.6471   -0.3354 C.ar    1  LIG1        0.0437
     36 C          -4.0655    9.9170    0.1770 C.ar    1  LIG1        0.0553
     37 C          -5.3294   10.6059    0.0408 C.ar    1  LIG1        0.0477
     38 C          -6.2776    9.8275   -0.5550 C.ar    1  LIG1       -0.0071
     39 S          -5.6763    8.2795   -0.9729 S.2     1  LIG1       -0.0936
     40 H          -7.2980   10.1015   -0.7674 H       1  LIG1        0.0706
     41 C          -2.9169   10.4895    0.8152 C.1     1  LIG1       -0.0673
     42 C          -1.9596   10.9690    1.3587 C.1     1  LIG1       -0.1138
     43 H          -1.1053   11.3886    1.8375 H       1  LIG1        0.1232
     44 C          -5.5572   11.9488    0.4952 C.1     1  LIG1       -0.0679
     45 C          -5.7441   13.0721    0.8759 C.1     1  LIG1       -0.1139
     46 H          -5.9046   14.0685    1.2164 H       1  LIG1        0.1232
@<TRIPOS>BOND
     1    34    33    1
     2    33    32    3
     3    31    30    1
     4    30    29    3
     5    12    11    1
     6    32    26    1
     7    29    25    1
     8    11    10    3
     9     9     8    1
    10    39    38   ar
    11    39    35   ar
    12     8     7    3
    13    26    25   ar
    14    26    27   ar
    15    10     3    1
    16    25    24   ar
    17    40    38    1
    18     7     2    1
    19    38    37   ar
    20    27    35    1
    21    27    28   ar
    22    17    16   ar
    23    17    13   ar
    24    35    36   ar
    25     3     2   ar
    26     3     4   ar
    27    24    16    1
    28    24    28   ar
    29     2     1   ar
    30    37    36   ar
    31    37    44    1
    32    16    15   ar
    33    36    41    1
    34     4    13    1
    35     4     5   ar
    36    13    14   ar
    37     1     6    1
    38     1     5   ar
    39    44    45    3
    40    41    42    3
    41    15    14   ar
    42    15    21    1
    43    45    46    1
    44    14    18    1
    45    42    43    1
    46    21    22    3
    47    18    19    3
    48    22    23    1
    49    19    20    1
