@<TRIPOS>MOLECULE
mol_data/opt/m06hf/geoms/mol2/5ef.out
 12 12 0 0 0
SMALL
GASTEIGER

@<TRIPOS>ATOM
      1 C          -2.1092   -1.6919    0.0002 C.ar    1  LIG1       -0.0053
      2 C          -0.7462   -1.6728   -0.0001 C.ar    1  LIG1        0.0730
      3 C          -0.2322   -0.3223   -0.0001 C.ar    1  LIG1        0.1391
      4 C          -1.2159    0.6142    0.0001 C.ar    1  LIG1        0.0184
      5 S          -2.7815   -0.1158    0.0001 S.2     1  LIG1       -0.1001
      6 H          -2.7392   -2.5659    0.0003 H       1  LIG1        0.0707
      7 H          -1.1081    1.6864    0.0002 H       1  LIG1        0.0730
      8 C           0.0925   -2.8373   -0.0003 C.1     1  LIG1       -0.0655
      9 C           0.7944   -3.8118   -0.0005 C.1     1  LIG1       -0.1138
     10 H           1.4201   -4.6740   -0.0020 H       1  LIG1        0.1232
     11 O           1.1082   -0.1271   -0.0002 O.3     1  LIG1       -0.5050
     12 H           1.3146    0.8134   -0.0003 H       1  LIG1        0.2922
@<TRIPOS>BOND
     1    10     9    1
     2     9     8    3
     3    12    11    1
     4     8     2    1
     5    11     3    1
     6     2     3   ar
     7     2     1   ar
     8     3     4   ar
     9     5     4   ar
    10     5     1   ar
    11     4     7    1
    12     1     6    1
