@<TRIPOS>MOLECULE
mol_data/opt/m06hf/geoms/mol2/5ef5ef-5ef-.out
 32 34 0 0 0
SMALL
GASTEIGER

@<TRIPOS>ATOM
      1 C          -2.0499   -1.8482   -0.2476 C.ar    1  LIG1       -0.0047
      2 C          -0.7864   -1.8453    0.2621 C.ar    1  LIG1        0.0737
      3 C          -0.2032   -0.5234    0.2633 C.ar    1  LIG1        0.1474
      4 C          -1.0511    0.4227   -0.2532 C.ar    1  LIG1        0.0698
      5 S          -2.5559   -0.2929   -0.7550 S.2     1  LIG1       -0.0911
      6 H          -2.6936   -2.7046   -0.3661 H       1  LIG1        0.0707
      7 C          -0.0951   -3.0057    0.7469 C.1     1  LIG1       -0.0655
      8 C           0.4832   -3.9783    1.1489 C.1     1  LIG1       -0.1138
      9 H           1.0012   -4.8371    1.5073 H       1  LIG1        0.1232
     10 O           1.0185   -0.3452    0.7909 O.3     1  LIG1       -0.5044
     11 H           1.4789    0.3982    0.3722 H       1  LIG1        0.2922
     12 C          -0.8549    1.8667   -0.3288 C.ar    1  LIG1        0.0490
     13 C           0.2862    2.5569   -0.6504 C.ar    1  LIG1        0.0820
     14 C           0.1166    3.9870   -0.5845 C.ar    1  LIG1        0.1481
     15 C          -1.1546    4.3478   -0.2264 C.ar    1  LIG1        0.0704
     16 S          -2.1392    2.9472    0.0817 S.2     1  LIG1       -0.0820
     17 C           1.5128    1.9398   -1.0563 C.1     1  LIG1       -0.0648
     18 C           2.5348    1.3888   -1.3745 C.1     1  LIG1       -0.1138
     19 H           3.4362    0.9123   -1.6854 H       1  LIG1        0.1232
     20 O           1.1407    4.7810   -0.9363 O.3     1  LIG1       -0.5044
     21 H           1.0963    5.6350   -0.4799 H       1  LIG1        0.2922
     22 C          -1.7273    5.6894   -0.1610 C.ar    1  LIG1        0.0484
     23 C          -1.1519    6.8347    0.3305 C.ar    1  LIG1        0.0814
     24 C          -2.0167    7.9817    0.2047 C.ar    1  LIG1        0.1398
     25 C          -3.2149    7.6774   -0.3540 C.ar    1  LIG1        0.0190
     26 S          -3.3116    6.0026   -0.7723 S.2     1  LIG1       -0.0910
     27 H          -4.0449    8.3388   -0.5425 H       1  LIG1        0.0731
     28 C           0.1470    6.8901    0.9301 C.1     1  LIG1       -0.0648
     29 C           1.2523    6.9068    1.4071 C.1     1  LIG1       -0.1138
     30 H           2.2180    6.9250    1.8585 H       1  LIG1        0.1232
     31 O          -1.5805    9.1829    0.6513 O.3     1  LIG1       -0.5050
     32 H          -2.2378    9.8668    0.4857 H       1  LIG1        0.2922
@<TRIPOS>BOND
     1    19    18    1
     2    18    17    3
     3    17    13    1
     4    20    14    1
     5    20    21    1
     6    26    25   ar
     7    26    22   ar
     8     5     4   ar
     9     5     1   ar
    10    13    14   ar
    11    13    12   ar
    12    14    15   ar
    13    27    25    1
    14     6     1    1
    15    25    24   ar
    16    12     4    1
    17    12    16   ar
    18     4     3   ar
    19     1     2   ar
    20    15    22    1
    21    15    16   ar
    22    22    23   ar
    23    24    23   ar
    24    24    31    1
    25     2     3   ar
    26     2     7    1
    27     3    10    1
    28    23    28    1
    29    11    10    1
    30    32    31    1
    31     7     8    3
    32    28    29    3
    33     8     9    1
    34    29    30    1
