@<TRIPOS>MOLECULE
mol_data/opt/m06hf/geoms/mol2/5ef5ef5ef-.out
 32 34 0 0 0
SMALL
GASTEIGER

@<TRIPOS>ATOM
      1 C          -1.7687   -1.7214    1.2686 C.ar    1  LIG1       -0.0047
      2 C          -0.7988   -1.8718    0.3249 C.ar    1  LIG1        0.0737
      3 C          -0.2981   -0.6013   -0.1487 C.ar    1  LIG1        0.1474
      4 C          -0.9089    0.4624    0.4650 C.ar    1  LIG1        0.0698
      5 S          -2.0902   -0.0774    1.6230 S.2     1  LIG1       -0.0911
      6 H          -2.2936   -2.5100    1.7822 H       1  LIG1        0.0707
      7 C          -0.3159   -3.1333   -0.1593 C.1     1  LIG1       -0.0655
      8 C           0.0868   -4.1906   -0.5612 C.1     1  LIG1       -0.1138
      9 H           0.4474   -5.1249   -0.9232 H       1  LIG1        0.1232
     10 O           0.6193   -0.5843   -1.1283 O.3     1  LIG1       -0.5044
     11 H           1.1588    0.2197   -1.0961 H       1  LIG1        0.2922
     12 C          -0.7305    1.8877    0.2033 C.ar    1  LIG1        0.0490
     13 C           0.4321    2.5708   -0.0500 C.ar    1  LIG1        0.0820
     14 C           0.2218    3.9821   -0.2590 C.ar    1  LIG1        0.1481
     15 C          -1.0939    4.3396   -0.1367 C.ar    1  LIG1        0.0704
     16 S          -2.0888    2.9532    0.2085 S.2     1  LIG1       -0.0820
     17 C           1.7339    1.9743   -0.0700 C.1     1  LIG1       -0.0648
     18 C           2.8136    1.4421   -0.1028 C.1     1  LIG1       -0.1138
     19 H           3.7779    0.9869   -0.1104 H       1  LIG1        0.1232
     20 O           1.2717    4.7587   -0.5727 O.3     1  LIG1       -0.5044
     21 H           1.1448    5.6663   -0.2566 H       1  LIG1        0.2922
     22 C          -1.6956    5.6563   -0.3283 C.ar    1  LIG1        0.0484
     23 C          -1.2113    6.8767    0.0735 C.ar    1  LIG1        0.0814
     24 C          -2.0726    7.9652   -0.3156 C.ar    1  LIG1        0.1398
     25 C          -3.1807    7.5471   -0.9771 C.ar    1  LIG1        0.0190
     26 S          -3.1912    5.8310   -1.1749 S.2     1  LIG1       -0.0910
     27 H          -3.9900    8.1482   -1.3588 H       1  LIG1        0.0731
     28 C          -0.0045    7.0613    0.8219 C.1     1  LIG1       -0.0648
     29 C           1.0290    7.1874    1.4268 C.1     1  LIG1       -0.1138
     30 H           1.9311    7.3061    1.9829 H       1  LIG1        0.1232
     31 O          -1.7183    9.2297    0.0135 O.3     1  LIG1       -0.5050
     32 H          -2.3625    9.8618   -0.3223 H       1  LIG1        0.2922
@<TRIPOS>BOND
     1    27    25    1
     2    26    25   ar
     3    26    22   ar
     4    10    11    1
     5    10     3    1
     6    25    24   ar
     7     9     8    1
     8    20    14    1
     9    20    21    1
    10     8     7    3
    11    22    15    1
    12    22    23   ar
    13    32    31    1
    14    24    31    1
    15    24    23   ar
    16    14    15   ar
    17    14    13   ar
    18     7     2    1
    19     3     2   ar
    20     3     4   ar
    21    15    16   ar
    22    19    18    1
    23    18    17    3
    24    17    13    1
    25    13    12   ar
    26    23    28    1
    27    12    16   ar
    28    12     4    1
    29     2     1   ar
    30     4     5   ar
    31    28    29    3
    32     1     5   ar
    33     1     6    1
    34    29    30    1
