@<TRIPOS>MOLECULE
mol_data/opt/m06hf/geoms/mol2/5ef5ef-.out
 22 23 0 0 0
SMALL
GASTEIGER

@<TRIPOS>ATOM
      1 C          -1.9716   -1.7692    0.6865 C.ar    1  LIG1       -0.0047
      2 C          -0.7598   -1.8173    0.0658 C.ar    1  LIG1        0.0737
      3 C          -0.2419   -0.4986   -0.2194 C.ar    1  LIG1        0.1474
      4 C          -1.0855    0.4967    0.2013 C.ar    1  LIG1        0.0698
      5 S          -2.5053   -0.1637    0.9567 S.2     1  LIG1       -0.0911
      6 H          -2.5620   -2.6105    1.0106 H       1  LIG1        0.0707
      7 C          -0.0637   -3.0248   -0.2780 C.1     1  LIG1       -0.0655
      8 C           0.5128   -4.0391   -0.5636 C.1     1  LIG1       -0.1138
      9 H           1.0254   -4.9371   -0.8208 H       1  LIG1        0.1232
     10 O           0.9215   -0.3765   -0.8805 O.3     1  LIG1       -0.5044
     11 H           1.3752    0.4462   -0.6442 H       1  LIG1        0.2922
     12 C          -0.9432    1.9386    0.0167 C.ar    1  LIG1        0.0484
     13 C           0.1916    2.7029    0.1278 C.ar    1  LIG1        0.0814
     14 C          -0.0510    4.0950   -0.1605 C.ar    1  LIG1        0.1398
     15 C          -1.3489    4.3509   -0.4601 C.ar    1  LIG1        0.0190
     16 S          -2.3017    2.9102   -0.4303 S.2     1  LIG1       -0.0910
     17 H          -1.7985    5.3017   -0.6943 H       1  LIG1        0.0731
     18 C           1.4717    2.1960    0.5217 C.1     1  LIG1       -0.0648
     19 C           2.5407    1.7372    0.8328 C.1     1  LIG1       -0.1138
     20 H           3.4849    1.3431    1.1332 H       1  LIG1        0.1232
     21 O           0.9812    4.9689   -0.0923 O.3     1  LIG1       -0.5050
     22 H           0.6827    5.8616   -0.2947 H       1  LIG1        0.2922
@<TRIPOS>BOND
     1    10    11    1
     2    10     3    1
     3     9     8    1
     4    17    15    1
     5     8     7    3
     6    15    16   ar
     7    15    14   ar
     8    16    12   ar
     9    22    21    1
    10     7     2    1
    11     3     2   ar
    12     3     4   ar
    13    14    21    1
    14    14    13   ar
    15    12    13   ar
    16    12     4    1
    17     2     1   ar
    18    13    18    1
    19     4     5   ar
    20    18    19    3
    21     1     5   ar
    22     1     6    1
    23    19    20    1
