@<TRIPOS>MOLECULE
mol_data/opt/m06hf/geoms/mol2/5ef5ef5ef-5ef-.out
 42 45 0 0 0
SMALL
GASTEIGER

@<TRIPOS>ATOM
      1 C          -1.6107   -1.7959    1.2992 C.ar    1  LIG1       -0.0047
      2 C          -0.8529   -1.8740    0.1704 C.ar    1  LIG1        0.0737
      3 C          -0.3820   -0.5771   -0.2603 C.ar    1  LIG1        0.1474
      4 C          -0.8002    0.4318    0.5689 C.ar    1  LIG1        0.0698
      5 S          -1.7593   -0.1913    1.8802 S.2     1  LIG1       -0.0911
      6 H          -2.0686   -2.6180    1.8243 H       1  LIG1        0.0707
      7 C          -0.5463   -3.0911   -0.5252 C.1     1  LIG1       -0.0655
      8 C          -0.2945   -4.1137   -1.1018 C.1     1  LIG1       -0.1138
      9 H          -0.0690   -5.0188   -1.6161 H       1  LIG1        0.1232
     10 O           0.3256   -0.4800   -1.3970 O.3     1  LIG1       -0.5044
     11 H           0.9274    0.2793   -1.3754 H       1  LIG1        0.2922
     12 C          -0.6122    1.8700    0.4067 C.ar    1  LIG1        0.0490
     13 C           0.5085    2.5417   -0.0123 C.ar    1  LIG1        0.0820
     14 C           0.3196    3.9702   -0.0710 C.ar    1  LIG1        0.1481
     15 C          -0.9350    4.3492    0.3274 C.ar    1  LIG1        0.0704
     16 S          -1.8993    2.9648    0.7612 S.2     1  LIG1       -0.0820
     17 C           1.7543    1.9101   -0.3270 C.1     1  LIG1       -0.0648
     18 C           2.7798    1.3443   -0.6051 C.1     1  LIG1       -0.1138
     19 H           3.6994    0.8541   -0.8304 H       1  LIG1        0.1232
     20 O           1.3199    4.7429   -0.5223 O.3     1  LIG1       -0.5044
     21 H           1.2882    5.6271   -0.1253 H       1  LIG1        0.2922
     22 C          -1.5188    5.6859    0.3389 C.ar    1  LIG1        0.0491
     23 C          -0.9278    6.8731    0.6920 C.ar    1  LIG1        0.0820
     24 C          -1.8095    8.0048    0.5489 C.ar    1  LIG1        0.1481
     25 C          -3.0526    7.6461    0.0993 C.ar    1  LIG1        0.0704
     26 S          -3.1413    5.9351   -0.1985 S.2     1  LIG1       -0.0820
     27 C           0.4057    6.9904    1.2001 C.1     1  LIG1       -0.0648
     28 C           1.5377    7.0597    1.6045 C.1     1  LIG1       -0.1138
     29 H           2.5277    7.1301    1.9935 H       1  LIG1        0.1232
     30 O          -1.3755    9.2184    0.9233 O.3     1  LIG1       -0.5044
     31 H          -1.8339    9.9218    0.4386 H       1  LIG1        0.2922
     32 C          -4.2369    8.4862   -0.0562 C.ar    1  LIG1        0.0484
     33 C          -4.3158    9.7675   -0.5428 C.ar    1  LIG1        0.0814
     34 C          -5.6624   10.2829   -0.5171 C.ar    1  LIG1        0.1398
     35 C          -6.5588    9.3856   -0.0364 C.ar    1  LIG1        0.0190
     36 S          -5.7926    7.9096    0.4279 S.2     1  LIG1       -0.0910
     37 H          -7.6245    9.5070    0.0695 H       1  LIG1        0.0731
     38 C          -3.2021   10.5090   -1.0521 C.1     1  LIG1       -0.0648
     39 C          -2.2445   11.1176   -1.4550 C.1     1  LIG1       -0.1138
     40 H          -1.4095   11.6557   -1.8418 H       1  LIG1        0.1232
     41 O          -5.8922   11.5382   -0.9689 O.3     1  LIG1       -0.5050
     42 H          -6.8208   11.7712   -0.8652 H       1  LIG1        0.2922
@<TRIPOS>BOND
     1    40    39    1
     2     9     8    1
     3    39    38    3
     4    10    11    1
     5    10     3    1
     6     8     7    3
     7    38    33    1
     8    41    42    1
     9    41    34    1
    10    19    18    1
    11    18    17    3
    12    33    34   ar
    13    33    32   ar
    14     7     2    1
    15    20    21    1
    16    20    14    1
    17    34    35   ar
    18    17    13    1
    19     3     2   ar
    20     3     4   ar
    21    26    25   ar
    22    26    22   ar
    23    14    13   ar
    24    14    15   ar
    25    32    25    1
    26    32    36   ar
    27    35    37    1
    28    35    36   ar
    29    13    12   ar
    30    25    24   ar
    31     2     1   ar
    32    15    22    1
    33    15    16   ar
    34    22    23   ar
    35    12     4    1
    36    12    16   ar
    37    31    30    1
    38    24    23   ar
    39    24    30    1
    40     4     5   ar
    41    23    27    1
    42    27    28    3
    43     1     6    1
    44     1     5   ar
    45    28    29    1
