@<TRIPOS>MOLECULE
mol_data/opt/m06hf/geoms/mol2/5ef5ef5ef.out
 32 34 0 0 0
SMALL
GASTEIGER

@<TRIPOS>ATOM
      1 C          -2.0493   -1.8501    0.2177 C.ar    1  LIG1       -0.0047
      2 C          -0.7756   -1.8454   -0.2658 C.ar    1  LIG1        0.0737
      3 C          -0.1939   -0.5229   -0.2540 C.ar    1  LIG1        0.1474
      4 C          -1.0534    0.4218    0.2455 C.ar    1  LIG1        0.0698
      5 S          -2.5674   -0.2958    0.7158 S.2     1  LIG1       -0.0911
      6 H          -2.6943   -2.7073    0.3222 H       1  LIG1        0.0707
      7 C          -0.0731   -3.0047   -0.7372 C.1     1  LIG1       -0.0655
      8 C           0.5145   -3.9763   -1.1280 C.1     1  LIG1       -0.1138
      9 H           1.0407   -4.8343   -1.4763 H       1  LIG1        0.1232
     10 O           1.0382   -0.3429   -0.7562 O.3     1  LIG1       -0.5044
     11 H           1.4889    0.4007   -0.3276 H       1  LIG1        0.2922
     12 C          -0.8605    1.8660    0.3263 C.ar    1  LIG1        0.0490
     13 C           0.2730    2.5572    0.6718 C.ar    1  LIG1        0.0820
     14 C           0.1032    3.9873    0.6035 C.ar    1  LIG1        0.1481
     15 C          -1.1608    4.3469    0.2196 C.ar    1  LIG1        0.0704
     16 S          -2.1373    2.9453   -0.1097 S.2     1  LIG1       -0.0820
     17 C           1.4917    1.9412    1.1024 C.1     1  LIG1       -0.0648
     18 C           2.5076    1.3912    1.4411 C.1     1  LIG1       -0.1138
     19 H           3.4030    0.9155    1.7700 H       1  LIG1        0.1232
     20 O           1.1189    4.7821    0.9768 O.3     1  LIG1       -0.5044
     21 H           1.0829    5.6364    0.5202 H       1  LIG1        0.2922
     22 C          -1.7336    5.6879    0.1434 C.ar    1  LIG1        0.0484
     23 C          -1.1495    6.8341   -0.3354 C.ar    1  LIG1        0.0814
     24 C          -2.0179    7.9801   -0.2264 C.ar    1  LIG1        0.1398
     25 C          -3.2270    7.6741    0.3073 C.ar    1  LIG1        0.0190
     26 S          -3.3305    5.9988    0.7220 S.2     1  LIG1       -0.0910
     27 H          -4.0615    8.3345    0.4791 H       1  LIG1        0.0731
     28 C           0.1614    6.8915   -0.9081 C.1     1  LIG1       -0.0648
     29 C           1.2763    6.9096   -1.3623 C.1     1  LIG1       -0.1138
     30 H           2.2511    6.9291   -1.7936 H       1  LIG1        0.1232
     31 O          -1.5740    9.1822   -0.6631 O.3     1  LIG1       -0.5050
     32 H          -2.2354    9.8652   -0.5106 H       1  LIG1        0.2922
@<TRIPOS>BOND
     1    30    29    1
     2     9     8    1
     3    29    28    3
     4     8     7    3
     5    28    23    1
     6    10    11    1
     7    10     3    1
     8     7     2    1
     9    31    32    1
    10    31    24    1
    11    23    24   ar
    12    23    22   ar
    13     2     3   ar
    14     2     1   ar
    15     3     4   ar
    16    24    25   ar
    17    16    15   ar
    18    16    12   ar
    19    22    15    1
    20    22    26   ar
    21     1     6    1
    22     1     5   ar
    23    15    14   ar
    24     4    12    1
    25     4     5   ar
    26    25    27    1
    27    25    26   ar
    28    12    13   ar
    29    21    20    1
    30    14    13   ar
    31    14    20    1
    32    13    17    1
    33    17    18    3
    34    18    19    1
