@<TRIPOS>MOLECULE
mol_data/opt/m06hf/geoms/mol2/5ef5ef5ef5ef.out
 42 45 0 0 0
SMALL
GASTEIGER

@<TRIPOS>ATOM
      1 C          -2.1027   -1.8448    0.2870 C.ar    1  LIG1       -0.0047
      2 C          -0.7997   -1.9117   -0.1041 C.ar    1  LIG1        0.0737
      3 C          -0.1803   -0.6071   -0.1599 C.ar    1  LIG1        0.1474
      4 C          -1.0431    0.3968    0.1999 C.ar    1  LIG1        0.0698
      5 S          -2.6089   -0.2418    0.6149 S.2     1  LIG1       -0.0911
      6 H          -2.7794   -2.6736    0.4143 H       1  LIG1        0.0707
      7 C          -0.1052   -3.1246   -0.4292 C.1     1  LIG1       -0.0655
      8 C           0.4688   -4.1440   -0.6995 C.1     1  LIG1       -0.1138
      9 H           0.9830   -5.0443   -0.9436 H       1  LIG1        0.1232
     10 O           1.0865   -0.4988   -0.5901 O.3     1  LIG1       -0.5044
     11 H           1.5273    0.2717   -0.2010 H       1  LIG1        0.2922
     12 C          -0.8128    1.8375    0.1991 C.ar    1  LIG1        0.0490
     13 C           0.3133    2.5234    0.5798 C.ar    1  LIG1        0.0820
     14 C           0.1807    3.9510    0.4302 C.ar    1  LIG1        0.1481
     15 C          -1.0494    4.3151   -0.0531 C.ar    1  LIG1        0.0704
     16 S          -2.0334    2.9160   -0.3749 S.2     1  LIG1       -0.0820
     17 C           1.4888    1.9087    1.1193 C.1     1  LIG1       -0.0648
     18 C           2.4690    1.3578    1.5494 C.1     1  LIG1       -0.1138
     19 H           3.3303    0.8793    1.9568 H       1  LIG1        0.1232
     20 O           1.1867    4.7427    0.8308 O.3     1  LIG1       -0.5044
     21 H           1.1975    5.5780    0.3375 H       1  LIG1        0.2922
     22 C          -1.5948    5.6574   -0.2171 C.ar    1  LIG1        0.0491
     23 C          -0.9579    6.7904   -0.6581 C.ar    1  LIG1        0.0820
     24 C          -1.8091    7.9543   -0.6496 C.ar    1  LIG1        0.1481
     25 C          -3.0774    7.6715   -0.2168 C.ar    1  LIG1        0.0704
     26 S          -3.2303    5.9980    0.2292 S.2     1  LIG1       -0.0820
     27 C           0.3937    6.8248   -1.1299 C.1     1  LIG1       -0.0648
     28 C           1.5387    6.8264   -1.5033 C.1     1  LIG1       -0.1138
     29 H           2.5415    6.8345   -1.8661 H       1  LIG1        0.1232
     30 O          -1.3252    9.1184   -1.1106 O.3     1  LIG1       -0.5044
     31 H          -1.7739    9.8731   -0.6991 H       1  LIG1        0.2922
     32 C          -4.2368    8.5578   -0.1772 C.ar    1  LIG1        0.0484
     33 C          -4.2861    9.8765    0.2012 C.ar    1  LIG1        0.0814
     34 C          -5.6103   10.4344    0.0784 C.ar    1  LIG1        0.1398
     35 C          -6.5203    9.5324   -0.3662 C.ar    1  LIG1        0.0190
     36 S          -5.7924    7.9973   -0.6786 S.2     1  LIG1       -0.0910
     37 H          -7.5755    9.6810   -0.5268 H       1  LIG1        0.0731
     38 C          -3.1647   10.6175    0.6940 C.1     1  LIG1       -0.0648
     39 C          -2.1989   11.2219    1.0832 C.1     1  LIG1       -0.1138
     40 H          -1.3572   11.7593    1.4564 H       1  LIG1        0.1232
     41 O          -5.8091   11.7298    0.4173 O.3     1  LIG1       -0.5050
     42 H          -6.7300   11.9777    0.2846 H       1  LIG1        0.2922
@<TRIPOS>BOND
     1    29    28    1
     2    28    27    3
     3    27    23    1
     4    30    31    1
     5    30    24    1
     6     9     8    1
     7     8     7    3
     8    36    35   ar
     9    36    32   ar
    10    23    24   ar
    11    23    22   ar
    12    24    25   ar
    13    10    11    1
    14    10     3    1
    15    37    35    1
    16     7     2    1
    17    16    15   ar
    18    16    12   ar
    19    35    34   ar
    20    22    15    1
    21    22    26   ar
    22    25    32    1
    23    25    26   ar
    24    32    33   ar
    25     3     2   ar
    26     3     4   ar
    27     2     1   ar
    28    15    14   ar
    29    34    33   ar
    30    34    41    1
    31    12     4    1
    32    12    13   ar
    33     4     5   ar
    34    33    38    1
    35    42    41    1
    36     1     6    1
    37     1     5   ar
    38    21    20    1
    39    14    13   ar
    40    14    20    1
    41    13    17    1
    42    38    39    3
    43    39    40    1
    44    17    18    3
    45    18    19    1
