@<TRIPOS>MOLECULE
mol_data/opt/m06hf/geoms/mol2/5ef5ef-5ef.out
 32 34 0 0 0
SMALL
GASTEIGER

@<TRIPOS>ATOM
      1 C          -2.0429   -1.8506    0.2597 C.ar    1  LIG1       -0.0047
      2 C          -0.7823   -1.8453   -0.2570 C.ar    1  LIG1        0.0737
      3 C          -0.2008   -0.5226   -0.2596 C.ar    1  LIG1        0.1474
      4 C          -1.0471    0.4216    0.2629 C.ar    1  LIG1        0.0698
      5 S          -2.5481   -0.2966    0.7721 S.2     1  LIG1       -0.0911
      6 H          -2.6848   -2.7080    0.3806 H       1  LIG1        0.0707
      7 C          -0.0920   -3.0040   -0.7472 C.1     1  LIG1       -0.0655
      8 C           0.4855   -3.9751   -1.1539 C.1     1  LIG1       -0.1138
      9 H           1.0027   -4.8328   -1.5163 H       1  LIG1        0.1232
     10 O           1.0176   -0.3418   -0.7938 O.3     1  LIG1       -0.5044
     11 H           1.4799    0.4005   -0.3753 H       1  LIG1        0.2922
     12 C          -0.8523    1.8658    0.3395 C.ar    1  LIG1        0.0490
     13 C           0.2898    2.5567    0.6560 C.ar    1  LIG1        0.0820
     14 C           0.1182    3.9869    0.5931 C.ar    1  LIG1        0.1481
     15 C          -1.1553    4.3467    0.2422 C.ar    1  LIG1        0.0704
     16 S          -2.1399    2.9454   -0.0626 S.2     1  LIG1       -0.0820
     17 C           1.5193    1.9406    1.0545 C.1     1  LIG1       -0.0648
     18 C           2.5439    1.3909    1.3663 C.1     1  LIG1       -0.1138
     19 H           3.4477    0.9154    1.6717 H       1  LIG1        0.1232
     20 O           1.1431    4.7817    0.9405 O.3     1  LIG1       -0.5044
     21 H           1.0960    5.6356    0.4840 H       1  LIG1        0.2922
     22 C          -1.7296    5.6878    0.1819 C.ar    1  LIG1        0.0484
     23 C          -1.1580    6.8341   -0.3116 C.ar    1  LIG1        0.0814
     24 C          -2.0230    7.9803   -0.1792 C.ar    1  LIG1        0.1398
     25 C          -3.2176    7.6743    0.3862 C.ar    1  LIG1        0.0190
     26 S          -3.3106    5.9988    0.8028 S.2     1  LIG1       -0.0910
     27 H          -4.0470    8.3348    0.5804 H       1  LIG1        0.0731
     28 C           0.1375    6.8914   -0.9182 C.1     1  LIG1       -0.0648
     29 C           1.2400    6.9098   -1.4015 C.1     1  LIG1       -0.1138
     30 H           2.2032    6.9296   -1.8582 H       1  LIG1        0.1232
     31 O          -1.5903    9.1825   -0.6266 O.3     1  LIG1       -0.5050
     32 H          -2.2483    9.8651   -0.4584 H       1  LIG1        0.2922
@<TRIPOS>BOND
     1    30    29    1
     2     9     8    1
     3    29    28    3
     4     8     7    3
     5    28    23    1
     6    10    11    1
     7    10     3    1
     8     7     2    1
     9    31    32    1
    10    31    24    1
    11    23    24   ar
    12    23    22   ar
    13     3     2   ar
    14     3     4   ar
    15     2     1   ar
    16    24    25   ar
    17    16    15   ar
    18    16    12   ar
    19    22    15    1
    20    22    26   ar
    21    15    14   ar
    22     1     6    1
    23     1     5   ar
    24     4    12    1
    25     4     5   ar
    26    12    13   ar
    27    25    27    1
    28    25    26   ar
    29    21    20    1
    30    14    13   ar
    31    14    20    1
    32    13    17    1
    33    17    18    3
    34    18    19    1
