@<TRIPOS>MOLECULE
mol_data/opt/m06hf/geoms/mol2/5ef5ef-5ef5ef-.out
 42 45 0 0 0
SMALL
GASTEIGER

@<TRIPOS>ATOM
      1 C          -1.5906   -1.7965    1.3161 C.ar    1  LIG1       -0.0047
      2 C          -0.8617   -1.8752    0.1685 C.ar    1  LIG1        0.0737
      3 C          -0.3989   -0.5789   -0.2727 C.ar    1  LIG1        0.1474
      4 C          -0.7940    0.4302    0.5677 C.ar    1  LIG1        0.0698
      5 S          -1.7211   -0.1923    1.9022 S.2     1  LIG1       -0.0911
      6 H          -2.0370   -2.6181    1.8518 H       1  LIG1        0.0707
      7 C          -0.5755   -3.0922   -0.5357 C.1     1  LIG1       -0.0655
      8 C          -0.3408   -4.1149   -1.1194 C.1     1  LIG1       -0.1138
      9 H          -0.1303   -5.0201   -1.6399 H       1  LIG1        0.1232
     10 O           0.2799   -0.4823   -1.4268 O.3     1  LIG1       -0.5044
     11 H           0.8834    0.2760   -1.4200 H       1  LIG1        0.2922
     12 C          -0.6072    1.8680    0.4021 C.ar    1  LIG1        0.0490
     13 C           0.5038    2.5380   -0.0449 C.ar    1  LIG1        0.0820
     14 C           0.3164    3.9668   -0.0974 C.ar    1  LIG1        0.1481
     15 C          -0.9269    4.3480    0.3332 C.ar    1  LIG1        0.0704
     16 S          -1.8825    2.9651    0.7903 S.2     1  LIG1       -0.0820
     17 C           1.7399    1.9042   -0.3918 C.1     1  LIG1       -0.0648
     18 C           2.7569    1.3366   -0.6964 C.1     1  LIG1       -0.1138
     19 H           3.6695    0.8449   -0.9454 H       1  LIG1        0.1232
     20 O           1.3065    4.7379   -0.5732 O.3     1  LIG1       -0.5044
     21 H           1.2864    5.6220   -0.1751 H       1  LIG1        0.2922
     22 C          -1.5076    5.6858    0.3609 C.ar    1  LIG1        0.0491
     23 C          -0.9055    6.8716    0.6998 C.ar    1  LIG1        0.0820
     24 C          -1.7885    8.0050    0.5803 C.ar    1  LIG1        0.1481
     25 C          -3.0433    7.6491    0.1623 C.ar    1  LIG1        0.0704
     26 S          -3.1427    5.9385   -0.1346 S.2     1  LIG1       -0.0820
     27 C           0.4408    6.9859    1.1737 C.1     1  LIG1       -0.0648
     28 C           1.5830    7.0526    1.5490 C.1     1  LIG1       -0.1138
     29 H           2.5828    7.1208    1.9126 H       1  LIG1        0.1232
     30 O          -1.3429    9.2175    0.9446 O.3     1  LIG1       -0.5044
     31 H          -1.8124    9.9222    0.4727 H       1  LIG1        0.2922
     32 C          -4.2297    8.4914    0.0383 C.ar    1  LIG1        0.0484
     33 C          -4.3188    9.7734   -0.4449 C.ar    1  LIG1        0.0814
     34 C          -5.6633   10.2912   -0.3838 C.ar    1  LIG1        0.1398
     35 C          -6.5486    9.3950    0.1192 C.ar    1  LIG1        0.0190
     36 S          -5.7733    7.9172    0.5621 S.2     1  LIG1       -0.0910
     37 H          -7.6111    9.5182    0.2526 H       1  LIG1        0.0731
     38 C          -3.2171   10.5132   -0.9820 C.1     1  LIG1       -0.0648
     39 C          -2.2689   11.1203   -1.4086 C.1     1  LIG1       -0.1138
     40 H          -1.4428   11.6570   -1.8160 H       1  LIG1        0.1232
     41 O          -5.9026   11.5473   -0.8284 O.3     1  LIG1       -0.5050
     42 H          -6.8275   11.7822   -0.6994 H       1  LIG1        0.2922
@<TRIPOS>BOND
     1    40    39    1
     2     9     8    1
     3    10    11    1
     4    10     3    1
     5    39    38    3
     6     8     7    3
     7    38    33    1
     8    19    18    1
     9    41    42    1
    10    41    34    1
    11    18    17    3
    12    20    21    1
    13    20    14    1
    14     7     2    1
    15    33    34   ar
    16    33    32   ar
    17    17    13    1
    18    34    35   ar
    19     3     2   ar
    20     3     4   ar
    21    26    25   ar
    22    26    22   ar
    23    14    13   ar
    24    14    15   ar
    25    13    12   ar
    26    32    25    1
    27    32    36   ar
    28    35    37    1
    29    35    36   ar
    30    25    24   ar
    31     2     1   ar
    32    15    22    1
    33    15    16   ar
    34    22    23   ar
    35    12     4    1
    36    12    16   ar
    37    31    30    1
    38     4     5   ar
    39    24    23   ar
    40    24    30    1
    41    23    27    1
    42    27    28    3
    43     1     6    1
    44     1     5   ar
    45    28    29    1
