@<TRIPOS>MOLECULE
mol_data/opt/m06hf/geoms/mol2/5ef5ef.out
 22 23 0 0 0
SMALL
GASTEIGER

@<TRIPOS>ATOM
      1 C          -1.9797   -1.7702    0.6698 C.ar    1  LIG1       -0.0047
      2 C          -0.7607   -1.8174    0.0632 C.ar    1  LIG1        0.0737
      3 C          -0.2394   -0.4982   -0.2136 C.ar    1  LIG1        0.1474
      4 C          -1.0879    0.4964    0.1989 C.ar    1  LIG1        0.0698
      5 S          -2.5165   -0.1651    0.9365 S.2     1  LIG1       -0.0911
      6 H          -2.5738   -2.6121    0.9855 H       1  LIG1        0.0707
      7 C          -0.0607   -3.0243   -0.2745 C.1     1  LIG1       -0.0655
      8 C           0.5191   -4.0381   -0.5550 C.1     1  LIG1       -0.1138
      9 H           1.0346   -4.9357   -0.8078 H       1  LIG1        0.1232
     10 O           0.9316   -0.3751   -0.8608 O.3     1  LIG1       -0.5044
     11 H           1.3825    0.4472   -0.6179 H       1  LIG1        0.2922
     12 C          -0.9434    1.9386    0.0185 C.ar    1  LIG1        0.0484
     13 C           0.1901    2.7027    0.1441 C.ar    1  LIG1        0.0814
     14 C          -0.0491    4.0953   -0.1446 C.ar    1  LIG1        0.1398
     15 C          -1.3434    4.3517   -0.4589 C.ar    1  LIG1        0.0190
     16 S          -2.2965    2.9111   -0.4427 S.2     1  LIG1       -0.0910
     17 H          -1.7901    5.3030   -0.6966 H       1  LIG1        0.0731
     18 C           1.4655    2.1950    0.5520 C.1     1  LIG1       -0.0648
     19 C           2.5308    1.7356    0.8748 C.1     1  LIG1       -0.1138
     20 H           3.4714    1.3410    1.1855 H       1  LIG1        0.1232
     21 O           0.9823    4.9689   -0.0629 O.3     1  LIG1       -0.5050
     22 H           0.6862    5.8620   -0.2671 H       1  LIG1        0.2922
@<TRIPOS>BOND
     1    10    11    1
     2    10     3    1
     3     9     8    1
     4    17    15    1
     5     8     7    3
     6    15    16   ar
     7    15    14   ar
     8    16    12   ar
     9     7     2    1
    10    22    21    1
    11     3     2   ar
    12     3     4   ar
    13    14    21    1
    14    14    13   ar
    15    12    13   ar
    16    12     4    1
    17     2     1   ar
    18    13    18    1
    19     4     5   ar
    20    18    19    3
    21     1     5   ar
    22     1     6    1
    23    19    20    1
