@<TRIPOS>MOLECULE
mol_data/opt/m06hf/geoms/mol2/5ef5ef-5ef5ef.out
 42 45 0 0 0
SMALL
GASTEIGER

@<TRIPOS>ATOM
      1 C          -1.6075   -1.8032   -1.2718 C.ar    1  LIG1       -0.0047
      2 C          -0.8609   -1.8759   -0.1353 C.ar    1  LIG1        0.0737
      3 C          -0.3922   -0.5771    0.2924 C.ar    1  LIG1        0.1474
      4 C          -0.8008    0.4275   -0.5468 C.ar    1  LIG1        0.0698
      5 S          -1.7480   -0.2019   -1.8637 S.2     1  LIG1       -0.0911
      6 H          -2.0616   -2.6277   -1.7965 H       1  LIG1        0.0707
      7 C          -0.5630   -3.0893    0.5703 C.1     1  LIG1       -0.0655
      8 C          -0.3186   -4.1089    1.1554 C.1     1  LIG1       -0.1138
      9 H          -0.0996   -5.0114    1.6771 H       1  LIG1        0.1232
     10 O           0.3044   -0.4744    1.4353 O.3     1  LIG1       -0.5044
     11 H           0.9074    0.2840    1.4152 H       1  LIG1        0.2922
     12 C          -0.6123    1.8663   -0.3911 C.ar    1  LIG1        0.0490
     13 C           0.5052    2.5390    0.0350 C.ar    1  LIG1        0.0820
     14 C           0.3178    3.9680    0.0835 C.ar    1  LIG1        0.1481
     15 C          -0.9324    4.3464   -0.3294 C.ar    1  LIG1        0.0704
     16 S          -1.8943    2.9608   -0.7644 S.2     1  LIG1       -0.0820
     17 C           1.7470    1.9075    0.3655 C.1     1  LIG1       -0.0648
     18 C           2.7689    1.3419    0.6567 C.1     1  LIG1       -0.1138
     19 H           3.6856    0.8518    0.8938 H       1  LIG1        0.1232
     20 O           1.3148    4.7420    0.5399 O.3     1  LIG1       -0.5044
     21 H           1.2880    5.6240    0.1377 H       1  LIG1        0.2922
     22 C          -1.5141    5.6838   -0.3543 C.ar    1  LIG1        0.0491
     23 C          -0.9180    6.8681   -0.7086 C.ar    1  LIG1        0.0820
     24 C          -1.7994    8.0018   -0.5806 C.ar    1  LIG1        0.1481
     25 C          -3.0473    7.6475   -0.1410 C.ar    1  LIG1        0.0704
     26 S          -3.1413    5.9384    0.1659 S.2     1  LIG1       -0.0820
     27 C           0.4205    6.9806   -1.2045 C.1     1  LIG1       -0.0648
     28 C           1.5565    7.0458   -1.5983 C.1     1  LIG1       -0.1138
     29 H           2.5504    7.1124   -1.9781 H       1  LIG1        0.1232
     30 O          -1.3601    9.2126   -0.9579 O.3     1  LIG1       -0.5044
     31 H          -1.8223    9.9195   -0.4821 H       1  LIG1        0.2922
     32 C          -4.2319    8.4901   -0.0020 C.ar    1  LIG1        0.0484
     33 C          -4.3136    9.7744    0.4763 C.ar    1  LIG1        0.0814
     34 C          -5.6591   10.2916    0.4342 C.ar    1  LIG1        0.1398
     35 C          -6.5521    9.3928   -0.0501 C.ar    1  LIG1        0.0190
     36 S          -5.7835    7.9129   -0.4980 S.2     1  LIG1       -0.0910
     37 H          -7.6166    9.5151   -0.1672 H       1  LIG1        0.0731
     38 C          -3.2038   10.5172    0.9921 C.1     1  LIG1       -0.0648
     39 C          -2.2493   11.1270    1.4007 C.1     1  LIG1       -0.1138
     40 H          -1.4173   11.6661    1.7924 H       1  LIG1        0.1232
     41 O          -5.8915   11.5499    0.8762 O.3     1  LIG1       -0.5050
     42 H          -6.8187   11.7836    0.7619 H       1  LIG1        0.2922
@<TRIPOS>BOND
     1    29    28    1
     2     5     1   ar
     3     5     4   ar
     4     6     1    1
     5    28    27    3
     6     1     2   ar
     7    27    23    1
     8    30    24    1
     9    30    31    1
    10    16    12   ar
    11    16    15   ar
    12    23    24   ar
    13    23    22   ar
    14    24    25   ar
    15     4    12    1
    16     4     3   ar
    17    36    35   ar
    18    36    32   ar
    19    12    13   ar
    20    22    15    1
    21    22    26   ar
    22    15    14   ar
    23    37    35    1
    24    25    32    1
    25    25    26   ar
    26     2     3   ar
    27     2     7    1
    28    35    34   ar
    29    32    33   ar
    30    13    14   ar
    31    13    17    1
    32    14    20    1
    33    21    20    1
    34     3    10    1
    35    17    18    3
    36    34    33   ar
    37    34    41    1
    38    33    38    1
    39     7     8    3
    40    18    19    1
    41    42    41    1
    42    38    39    3
    43     8     9    1
    44    39    40    1
    45    11    10    1
