@<TRIPOS>MOLECULE
mol_data/opt/m06hf/geoms/mol2/5ef5ef5ef-5ef.out
 42 45 0 0 0
SMALL
GASTEIGER

@<TRIPOS>ATOM
      1 C          -1.4197   -1.5749    1.9259 C.ar    1  LIG1       -0.0047
      2 C          -0.8261   -1.8146    0.7233 C.ar    1  LIG1        0.0737
      3 C          -0.4272   -0.5941    0.0606 C.ar    1  LIG1        0.1474
      4 C          -0.7342    0.5230    0.7940 C.ar    1  LIG1        0.0698
      5 S          -1.4963    0.0955    2.2981 S.2     1  LIG1       -0.0911
      6 H          -1.7972   -2.3123    2.6153 H       1  LIG1        0.0707
      7 C          -0.6159   -3.1168    0.1586 C.1     1  LIG1       -0.0655
      8 C          -0.4455   -4.2090   -0.3104 C.1     1  LIG1       -0.1138
      9 H          -0.2940   -5.1757   -0.7311 H       1  LIG1        0.1232
     10 O           0.1204   -0.6609   -1.1634 O.3     1  LIG1       -0.5044
     11 H           0.7117    0.0887   -1.3263 H       1  LIG1        0.2922
     12 C          -0.5633    1.9230    0.4172 C.ar    1  LIG1        0.0490
     13 C           0.5045    2.5092   -0.2147 C.ar    1  LIG1        0.0820
     14 C           0.3181    3.9206   -0.4419 C.ar    1  LIG1        0.1481
     15 C          -0.8795    4.3750    0.0431 C.ar    1  LIG1        0.0704
     16 S          -1.7967    3.0807    0.7589 S.2     1  LIG1       -0.0820
     17 C           1.6986    1.8140   -0.5903 C.1     1  LIG1       -0.0648
     18 C           2.6772    1.1934   -0.9164 C.1     1  LIG1       -0.1138
     19 H           3.5576    0.6567   -1.1871 H       1  LIG1        0.1232
     20 O           1.2632    4.6037   -1.1066 O.3     1  LIG1       -0.5044
     21 H           1.2824    5.5345   -0.8360 H       1  LIG1        0.2922
     22 C          -1.4412    5.7182   -0.0593 C.ar    1  LIG1        0.0491
     23 C          -0.7994    6.9208    0.1003 C.ar    1  LIG1        0.0820
     24 C          -1.6714    8.0527   -0.0914 C.ar    1  LIG1        0.1481
     25 C          -2.9596    7.6801   -0.3690 C.ar    1  LIG1        0.0704
     26 S          -3.1141    5.9467   -0.4181 S.2     1  LIG1       -0.0820
     27 C           0.5823    7.0550    0.4524 C.1     1  LIG1       -0.0648
     28 C           1.7521    7.1272    0.7277 C.1     1  LIG1       -0.1138
     29 H           2.7806    7.2001    0.9988 H       1  LIG1        0.1232
     30 O          -1.1580    9.2921   -0.0283 O.3     1  LIG1       -0.5044
     31 H          -1.8138    9.9283    0.2968 H       1  LIG1        0.2922
     32 C          -4.0930    8.5398   -0.6984 C.ar    1  LIG1        0.0484
     33 C          -4.4436    9.7367   -0.1249 C.ar    1  LIG1        0.0814
     34 C          -5.6062   10.3231   -0.7439 C.ar    1  LIG1        0.1398
     35 C          -6.1095    9.5588   -1.7457 C.ar    1  LIG1        0.0190
     36 S          -5.1709    8.1274   -1.9834 S.2     1  LIG1       -0.0910
     37 H          -6.9776    9.7527   -2.3545 H       1  LIG1        0.0731
     38 C          -3.7601   10.3329    0.9829 C.1     1  LIG1       -0.0648
     39 C          -3.1513   10.8203    1.9001 C.1     1  LIG1       -0.1138
     40 H          -2.6383   11.2471    2.7316 H       1  LIG1        0.1232
     41 O          -6.0668   11.5082   -0.2795 O.3     1  LIG1       -0.5050
     42 H          -6.8371   11.7940   -0.7817 H       1  LIG1        0.2922
@<TRIPOS>BOND
     1    37    35    1
     2    36    35   ar
     3    36    32   ar
     4    35    34   ar
     5    11    10    1
     6    19    18    1
     7    10     3    1
     8    20    21    1
     9    20    14    1
    10    18    17    3
    11    42    41    1
    12    34    41    1
    13    34    33   ar
    14     9     8    1
    15    32    25    1
    16    32    33   ar
    17    17    13    1
    18    14    13   ar
    19    14    15   ar
    20    26    25   ar
    21    26    22   ar
    22    25    24   ar
    23     8     7    3
    24    13    12   ar
    25    33    38    1
    26    24    30    1
    27    24    23   ar
    28    22    15    1
    29    22    23   ar
    30    30    31    1
    31    15    16   ar
    32     3     2   ar
    33     3     4   ar
    34    23    27    1
    35     7     2    1
    36    12    16   ar
    37    12     4    1
    38    27    28    3
    39     2     1   ar
    40    28    29    1
    41     4     5   ar
    42    38    39    3
    43    39    40    1
    44     1     5   ar
    45     1     6    1
