@<TRIPOS>MOLECULE
mol_data/opt/m06hf/geoms/mol2/5ef5ef5ef5ef-.out
 42 45 0 0 0
SMALL
GASTEIGER

@<TRIPOS>ATOM
      1 C          -2.0926   -1.8439    0.3200 C.ar    1  LIG1       -0.0047
      2 C          -0.7946   -1.9115   -0.0869 C.ar    1  LIG1        0.0737
      3 C          -0.1771   -0.6066   -0.1564 C.ar    1  LIG1        0.1474
      4 C          -1.0364    0.3982    0.2094 C.ar    1  LIG1        0.0698
      5 S          -2.5963   -0.2398    0.6468 S.2     1  LIG1       -0.0911
      6 H          -2.7670   -2.6727    0.4595 H       1  LIG1        0.0707
      7 C          -0.1030   -3.1252   -0.4150 C.1     1  LIG1       -0.0655
      8 C           0.4686   -4.1453   -0.6877 C.1     1  LIG1       -0.1138
      9 H           0.9806   -5.0463   -0.9340 H       1  LIG1        0.1232
     10 O           1.0841   -0.4991   -0.6028 O.3     1  LIG1       -0.5044
     11 H           1.5289    0.2736   -0.2227 H       1  LIG1        0.2922
     12 C          -0.8075    1.8391    0.1991 C.ar    1  LIG1        0.0490
     13 C           0.3225    2.5277    0.5626 C.ar    1  LIG1        0.0820
     14 C           0.1867    3.9546    0.4081 C.ar    1  LIG1        0.1481
     15 C          -1.0495    4.3153   -0.0615 C.ar    1  LIG1        0.0704
     16 S          -2.0362    2.9138   -0.3647 S.2     1  LIG1       -0.0820
     17 C           1.5052    1.9167    1.0904 C.1     1  LIG1       -0.0648
     18 C           2.4913    1.3686    1.5108 C.1     1  LIG1       -0.1138
     19 H           3.3580    0.8928    1.9097 H       1  LIG1        0.1232
     20 O           1.1969    4.7490    0.7926 O.3     1  LIG1       -0.5044
     21 H           1.2008    5.5820    0.2953 H       1  LIG1        0.2922
     22 C          -1.5983    5.6563   -0.2250 C.ar    1  LIG1        0.0491
     23 C          -0.9680    6.7878   -0.6791 C.ar    1  LIG1        0.0820
     24 C          -1.8201    7.9510   -0.6655 C.ar    1  LIG1        0.1481
     25 C          -3.0826    7.6691   -0.2157 C.ar    1  LIG1        0.0704
     26 S          -3.2284    5.9975    0.2400 S.2     1  LIG1       -0.0820
     27 C           0.3777    6.8213   -1.1678 C.1     1  LIG1       -0.0648
     28 C           1.5180    6.8222   -1.5553 C.1     1  LIG1       -0.1138
     29 H           2.5162    6.8294   -1.9305 H       1  LIG1        0.1232
     30 O          -1.3431    9.1134   -1.1378 O.3     1  LIG1       -0.5044
     31 H          -1.7873    9.8696   -0.7242 H       1  LIG1        0.2922
     32 C          -4.2423    8.5545   -0.1658 C.ar    1  LIG1        0.0484
     33 C          -4.2882    9.8749    0.2071 C.ar    1  LIG1        0.0814
     34 C          -5.6143   10.4311    0.0981 C.ar    1  LIG1        0.1398
     35 C          -6.5289    9.5262   -0.3310 C.ar    1  LIG1        0.0190
     36 S          -5.8035    7.9903   -0.6453 S.2     1  LIG1       -0.0910
     37 H          -7.5862    9.6732   -0.4792 H       1  LIG1        0.0731
     38 C          -3.1615   10.6191    0.6825 C.1     1  LIG1       -0.0648
     39 C          -2.1915   11.2262    1.0569 C.1     1  LIG1       -0.1138
     40 H          -1.3458   11.7662    1.4172 H       1  LIG1        0.1232
     41 O          -5.8101   11.7279    0.4334 O.3     1  LIG1       -0.5050
     42 H          -6.7328   11.9743    0.3110 H       1  LIG1        0.2922
@<TRIPOS>BOND
     1    29    28    1
     2    28    27    3
     3    27    23    1
     4    30    31    1
     5    30    24    1
     6     9     8    1
     7     8     7    3
     8    23    24   ar
     9    23    22   ar
    10    24    25   ar
    11    36    35   ar
    12    36    32   ar
    13    10    11    1
    14    10     3    1
    15    37    35    1
    16     7     2    1
    17    16    15   ar
    18    16    12   ar
    19    35    34   ar
    20    22    15    1
    21    22    26   ar
    22    25    32    1
    23    25    26   ar
    24    32    33   ar
    25     3     2   ar
    26     3     4   ar
    27     2     1   ar
    28    15    14   ar
    29    34    33   ar
    30    34    41    1
    31    12     4    1
    32    12    13   ar
    33    33    38    1
    34     4     5   ar
    35    21    20    1
    36    42    41    1
    37     1     6    1
    38     1     5   ar
    39    14    13   ar
    40    14    20    1
    41    13    17    1
    42    38    39    3
    43    39    40    1
    44    17    18    3
    45    18    19    1
