@<TRIPOS>MOLECULE
mol_data/opt/m06hf/geoms/mol2/5ef5ef-5ef-5ef.out
 42 45 0 0 0
SMALL
GASTEIGER

@<TRIPOS>ATOM
      1 C          -2.1455   -1.7842    0.3898 C.ar    1  LIG1       -0.0047
      2 C          -0.8165   -1.8073    0.6884 C.ar    1  LIG1        0.0737
      3 C          -0.1883   -0.5240    0.4730 C.ar    1  LIG1        0.1474
      4 C          -1.0714    0.4196    0.0147 C.ar    1  LIG1        0.0698
      5 S          -2.6661   -0.2518   -0.1707 S.2     1  LIG1       -0.0911
      6 H          -2.8343   -2.6101    0.4573 H       1  LIG1        0.0707
      7 C          -0.1049   -2.9572    1.1687 C.1     1  LIG1       -0.0655
      8 C           0.4878   -3.9196    1.5739 C.1     1  LIG1       -0.1138
      9 H           1.0187   -4.7687    1.9366 H       1  LIG1        0.1232
     10 O           1.1087   -0.3658    0.7820 O.3     1  LIG1       -0.5044
     11 H           1.5214    0.3177    0.2324 H       1  LIG1        0.2922
     12 C          -0.8330    1.8387   -0.2260 C.ar    1  LIG1        0.0490
     13 C           0.2621    2.4370   -0.7956 C.ar    1  LIG1        0.0820
     14 C           0.1621    3.8753   -0.8354 C.ar    1  LIG1        0.1481
     15 C          -1.0136    4.3329   -0.3014 C.ar    1  LIG1        0.0704
     16 S          -1.9855    3.0180    0.2932 S.2     1  LIG1       -0.0820
     17 C           1.3800    1.7221   -1.3341 C.1     1  LIG1       -0.0648
     18 C           2.3159    1.0921   -1.7541 C.1     1  LIG1       -0.1138
     19 H           3.1360    0.5404   -2.1538 H       1  LIG1        0.1232
     20 O           1.1395    4.5783   -1.4277 O.3     1  LIG1       -0.5044
     21 H           1.2043    5.4734   -1.0606 H       1  LIG1        0.2922
     22 C          -1.5179    5.7017   -0.2640 C.ar    1  LIG1        0.0491
     23 C          -0.8273    6.8569    0.0046 C.ar    1  LIG1        0.0820
     24 C          -1.6578    8.0340   -0.0547 C.ar    1  LIG1        0.1481
     25 C          -2.9630    7.7394   -0.3452 C.ar    1  LIG1        0.0704
     26 S          -3.1848    6.0276   -0.5675 S.2     1  LIG1       -0.0820
     27 C           0.5621    6.9046    0.3469 C.1     1  LIG1       -0.0648
     28 C           1.7365    6.9123    0.6123 C.1     1  LIG1       -0.1138
     29 H           2.7691    6.9277    0.8765 H       1  LIG1        0.1232
     30 O          -1.0974    9.2399    0.1339 O.3     1  LIG1       -0.5044
     31 H          -1.7273    9.8620    0.5290 H       1  LIG1        0.2922
     32 C          -4.0748    8.6653   -0.5427 C.ar    1  LIG1        0.0484
     33 C          -4.3780    9.7920    0.1802 C.ar    1  LIG1        0.0814
     34 C          -5.5440   10.4722   -0.3264 C.ar    1  LIG1        0.1398
     35 C          -6.0954    9.8433   -1.3942 C.ar    1  LIG1        0.0190
     36 S          -5.1976    8.4356   -1.8356 S.2     1  LIG1       -0.0910
     37 H          -6.9764   10.1273   -1.9461 H       1  LIG1        0.0731
     38 C          -3.6444   10.2361    1.3268 C.1     1  LIG1       -0.0648
     39 C          -2.9926   10.5983    2.2722 C.1     1  LIG1       -0.1138
     40 H          -2.4403   10.9127    3.1285 H       1  LIG1        0.1232
     41 O          -5.9638   11.6016    0.2907 O.3     1  LIG1       -0.5050
     42 H          -6.7263   11.9747   -0.1642 H       1  LIG1        0.2922
@<TRIPOS>BOND
     1    19    18    1
     2    37    35    1
     3    36    35   ar
     4    36    32   ar
     5    18    17    3
     6    20    21    1
     7    20    14    1
     8    35    34   ar
     9    17    13    1
    10    14    13   ar
    11    14    15   ar
    12    13    12   ar
    13    26    25   ar
    14    26    22   ar
    15    32    25    1
    16    32    33   ar
    17    25    24   ar
    18    34    33   ar
    19    34    41    1
    20    15    22    1
    21    15    16   ar
    22    22    23   ar
    23    12     4    1
    24    12    16   ar
    25     5     4   ar
    26     5     1   ar
    27    42    41    1
    28    24    23   ar
    29    24    30    1
    30    23    27    1
    31     4     3   ar
    32    30    31    1
    33    33    38    1
    34    11    10    1
    35    27    28    3
    36     1     6    1
    37     1     2   ar
    38     3     2   ar
    39     3    10    1
    40    28    29    1
    41     2     7    1
    42     7     8    3
    43    38    39    3
    44     8     9    1
    45    39    40    1
