@<TRIPOS>MOLECULE
mol_data/opt/m06hf/geoms/mol2/5ef5ef-5ef-5ef-.out
 42 45 0 0 0
SMALL
GASTEIGER

@<TRIPOS>ATOM
      1 C          -2.0975   -1.8449   -0.3054 C.ar    1  LIG1       -0.0047
      2 C          -0.8005   -1.9116    0.1048 C.ar    1  LIG1        0.0737
      3 C          -0.1821   -0.6069    0.1697 C.ar    1  LIG1        0.1474
      4 C          -1.0396    0.3969   -0.2028 C.ar    1  LIG1        0.0698
      5 S          -2.5991   -0.2419   -0.6408 S.2     1  LIG1       -0.0911
      6 H          -2.7722   -2.6737   -0.4427 H       1  LIG1        0.0707
      7 C          -0.1107   -3.1244    0.4401 C.1     1  LIG1       -0.0655
      8 C           0.4594   -4.1437    0.7189 C.1     1  LIG1       -0.1138
      9 H           0.9701   -5.0440    0.9705 H       1  LIG1        0.1232
     10 O           1.0783   -0.4985    0.6185 O.3     1  LIG1       -0.5044
     11 H           1.5246    0.2721    0.2359 H       1  LIG1        0.2922
     12 C          -0.8095    1.8376   -0.1987 C.ar    1  LIG1        0.0490
     13 C           0.3219    2.5236   -0.5627 C.ar    1  LIG1        0.0820
     14 C           0.1870    3.9512   -0.4151 C.ar    1  LIG1        0.1481
     15 C          -1.0501    4.3152    0.0500 C.ar    1  LIG1        0.0704
     16 S          -2.0386    2.9160    0.3573 S.2     1  LIG1       -0.0820
     17 C           1.5053    1.9091   -1.0849 C.1     1  LIG1       -0.0648
     18 C           2.4919    1.3582   -1.5004 C.1     1  LIG1       -0.1138
     19 H           3.3591    0.8799   -1.8951 H       1  LIG1        0.1232
     20 O           1.1988    4.7430   -0.8009 O.3     1  LIG1       -0.5044
     21 H           1.2022    5.5784   -0.3075 H       1  LIG1        0.2922
     22 C          -1.5980    5.6574    0.2059 C.ar    1  LIG1        0.0491
     23 C          -0.9678    6.7905    0.6562 C.ar    1  LIG1        0.0820
     24 C          -1.8190    7.9543    0.6352 C.ar    1  LIG1        0.1481
     25 C          -3.0807    7.6713    0.1837 C.ar    1  LIG1        0.0704
     26 S          -3.2268    5.9978   -0.2644 S.2     1  LIG1       -0.0820
     27 C           0.3766    6.8251    1.1479 C.1     1  LIG1       -0.0648
     28 C           1.5161    6.8269    1.5381 C.1     1  LIG1       -0.1138
     29 H           2.5134    6.8350    1.9156 H       1  LIG1        0.1232
     30 O          -1.3421    9.1185    1.1032 O.3     1  LIG1       -0.5044
     31 H          -1.7847    9.8731    0.6851 H       1  LIG1        0.2922
     32 C          -4.2395    8.5574    0.1270 C.ar    1  LIG1        0.0484
     33 C          -4.2834    9.8761   -0.2521 C.ar    1  LIG1        0.0814
     34 C          -5.6093   10.4339   -0.1488 C.ar    1  LIG1        0.1398
     35 C          -6.5257    9.5318    0.2824 C.ar    1  LIG1        0.0190
     36 S          -5.8023    7.9968    0.6055 S.2     1  LIG1       -0.0910
     37 H          -7.5832    9.6803    0.4275 H       1  LIG1        0.0731
     38 C          -3.1550   10.6172   -0.7283 C.1     1  LIG1       -0.0648
     39 C          -2.1836   11.2218   -1.1033 C.1     1  LIG1       -0.1138
     40 H          -1.3366   11.7593   -1.4641 H       1  LIG1        0.1232
     41 O          -5.8032   11.7293   -0.4906 O.3     1  LIG1       -0.5050
     42 H          -6.7261   11.9770   -0.3715 H       1  LIG1        0.2922
@<TRIPOS>BOND
     1    19    18    1
     2    18    17    3
     3    40    39    1
     4    39    38    3
     5    17    13    1
     6    20    14    1
     7    20    21    1
     8    38    33    1
     9     5     1   ar
    10     5     4   ar
    11    13    14   ar
    12    13    12   ar
    13    41    42    1
    14    41    34    1
    15     6     1    1
    16    14    15   ar
    17     1     2   ar
    18    26    25   ar
    19    26    22   ar
    20    33    34   ar
    21    33    32   ar
    22     4    12    1
    23     4     3   ar
    24    12    16   ar
    25    34    35   ar
    26    15    22    1
    27    15    16   ar
    28     2     3   ar
    29     2     7    1
    30    32    25    1
    31    32    36   ar
    32     3    10    1
    33    25    24   ar
    34    22    23   ar
    35    11    10    1
    36    35    37    1
    37    35    36   ar
    38     7     8    3
    39    24    23   ar
    40    24    30    1
    41    23    27    1
    42    31    30    1
    43     8     9    1
    44    27    28    3
    45    28    29    1
