@<TRIPOS>MOLECULE
mol_data/opt/m06hf/geoms/mol2/5eg.out
 12 12 0 0 0
SMALL
GASTEIGER

@<TRIPOS>ATOM
      1 C          -2.1537   -1.7145    0.0001 C.ar    1  LIG1       -0.0078
      2 C          -0.7897   -1.6878   -0.0002 C.ar    1  LIG1        0.0448
      3 C          -0.2709   -0.3382   -0.0001 C.ar    1  LIG1        0.0272
      4 C          -1.2628    0.5888    0.0002 C.ar    1  LIG1       -0.0099
      5 S          -2.8253   -0.1409    0.0005 S.2     1  LIG1       -0.1027
      6 H          -2.7819   -2.5899    0.0001 H       1  LIG1        0.0706
      7 H          -1.1672    1.6622    0.0003 H       1  LIG1        0.0705
      8 C           0.0458   -2.8557   -0.0005 C.1     1  LIG1       -0.0680
      9 C           0.7669   -3.8164   -0.0009 C.1     1  LIG1       -0.1139
     10 H           1.4063   -4.6683   -0.0013 H       1  LIG1        0.1232
     11 S           1.4789   -0.0655   -0.0005 S.3     1  LIG1       -0.1409
     12 H           1.3989    1.2681   -0.0004 H       1  LIG1        0.1072
@<TRIPOS>BOND
     1    10     9    1
     2     9     8    3
     3     8     2    1
     4    11    12    1
     5    11     3    1
     6     2     3   ar
     7     2     1   ar
     8     3     4   ar
     9     1     6    1
    10     1     5   ar
    11     4     7    1
    12     4     5   ar
