@<TRIPOS>MOLECULE
mol_data/opt/m06hf/geoms/mol2/5eg5eg5eg-5eg-.out
 42 45 0 0 0
SMALL
GASTEIGER

@<TRIPOS>ATOM
      1 C          -0.5058   -1.7379    1.8808 C.ar    1  LIG1       -0.0072
      2 C          -0.5896   -1.8605    0.5245 C.ar    1  LIG1        0.0454
      3 C          -0.5637   -0.5810   -0.1465 C.ar    1  LIG1        0.0355
      4 C          -0.4566    0.4541    0.7370 C.ar    1  LIG1        0.0415
      5 S          -0.3841   -0.1067    2.3774 S.2     1  LIG1       -0.0937
      6 H          -0.5055   -2.5416    2.5989 H       1  LIG1        0.0706
      7 C          -0.7039   -3.1130   -0.1690 C.1     1  LIG1       -0.0680
      8 C          -0.8007   -4.1501   -0.7677 C.1     1  LIG1       -0.1139
      9 H          -0.8835   -5.0710   -1.2975 H       1  LIG1        0.1232
     10 S          -0.7212   -0.5041   -1.9006 S.3     1  LIG1       -0.1403
     11 H          -0.5255    0.8173   -1.9833 H       1  LIG1        0.1072
     12 C          -0.4254    1.8921    0.4428 C.ar    1  LIG1        0.0440
     13 C           0.5228    2.5760   -0.2758 C.ar    1  LIG1        0.0537
     14 C           0.2316    3.9844   -0.3866 C.ar    1  LIG1        0.0361
     15 C          -0.9220    4.3189    0.2648 C.ar    1  LIG1        0.0421
     16 S          -1.6702    2.9404    1.0008 S.2     1  LIG1       -0.0848
     17 C           1.6804    1.9595   -0.8547 C.1     1  LIG1       -0.0674
     18 C           2.6462    1.4520   -1.3575 C.1     1  LIG1       -0.1138
     19 H           3.5003    0.9934   -1.7999 H       1  LIG1        0.1232
     20 S           1.2971    5.0337   -1.3167 S.3     1  LIG1       -0.1403
     21 H           0.6372    6.1592   -1.0229 H       1  LIG1        0.1072
     22 C          -1.5399    5.6458    0.3771 C.ar    1  LIG1        0.0440
     23 C          -1.0162    6.7528    0.9961 C.ar    1  LIG1        0.0537
     24 C          -1.8900    7.8988    0.9264 C.ar    1  LIG1        0.0361
     25 C          -3.0482    7.6167    0.2581 C.ar    1  LIG1        0.0421
     26 S          -3.0822    5.9769   -0.3073 S.2     1  LIG1       -0.0848
     27 C           0.2533    6.7625    1.6631 C.1     1  LIG1       -0.0674
     28 C           1.3212    6.7825    2.2136 C.1     1  LIG1       -0.1138
     29 H           2.2690    6.7926    2.7013 H       1  LIG1        0.1232
     30 S          -1.4241    9.4008    1.7209 S.3     1  LIG1       -0.1403
     31 H          -2.4923   10.0898    1.3024 H       1  LIG1        0.1072
     32 C          -4.1918    8.5019    0.0088 C.ar    1  LIG1        0.0434
     33 C          -4.1989    9.6904   -0.6777 C.ar    1  LIG1        0.0531
     34 C          -5.5084   10.2960   -0.7200 C.ar    1  LIG1        0.0278
     35 C          -6.4398    9.5414   -0.0816 C.ar    1  LIG1       -0.0093
     36 S          -5.7644    8.1092    0.5948 S.2     1  LIG1       -0.0937
     37 H          -7.4921    9.7466    0.0317 H       1  LIG1        0.0705
     38 C          -3.0429   10.2639   -1.3024 C.1     1  LIG1       -0.0674
     39 C          -2.0832   10.7685   -1.8201 C.1     1  LIG1       -0.1138
     40 H          -1.2271   11.2099   -2.2763 H       1  LIG1        0.1232
     41 S          -5.7394   11.8400   -1.5549 S.3     1  LIG1       -0.1409
     42 H          -7.0546   11.9031   -1.3301 H       1  LIG1        0.1072
@<TRIPOS>BOND
     1    40    39    1
     2    11    10    1
     3    10     3    1
     4    39    38    3
     5    19    18    1
     6    41    42    1
     7    41    34    1
     8    18    17    3
     9    20    21    1
    10    20    14    1
    11    38    33    1
    12     9     8    1
    13    17    13    1
    14     8     7    3
    15    34    33   ar
    16    34    35   ar
    17    33    32   ar
    18    14    13   ar
    19    14    15   ar
    20    26    25   ar
    21    26    22   ar
    22    13    12   ar
    23     7     2    1
    24     3     2   ar
    25     3     4   ar
    26    35    37    1
    27    35    36   ar
    28    32    25    1
    29    32    36   ar
    30    25    24   ar
    31    15    22    1
    32    15    16   ar
    33    22    23   ar
    34    12     4    1
    35    12    16   ar
    36     2     1   ar
    37     4     5   ar
    38    24    23   ar
    39    24    30    1
    40    23    27    1
    41    31    30    1
    42    27    28    3
    43     1     5   ar
    44     1     6    1
    45    28    29    1
