@<TRIPOS>MOLECULE
mol_data/opt/m06hf/geoms/mol2/5eg5eg-5eg-5eg.out
 42 45 0 0 0
SMALL
GASTEIGER

@<TRIPOS>ATOM
      1 C          -1.7800   -1.9899   -0.4290 C.ar    1  LIG1       -0.0072
      2 C          -0.6148   -1.9072    0.2754 C.ar    1  LIG1        0.0454
      3 C          -0.1383   -0.5484    0.3973 C.ar    1  LIG1        0.0355
      4 C          -0.9643    0.3384   -0.2333 C.ar    1  LIG1        0.0415
      5 S          -2.3204   -0.4599   -0.9679 S.2     1  LIG1       -0.0937
      6 H          -2.3330   -2.8873   -0.6538 H       1  LIG1        0.0706
      7 C           0.0669   -3.0331    0.8498 C.1     1  LIG1       -0.0680
      8 C           0.6571   -3.9577    1.3396 C.1     1  LIG1       -0.1139
      9 H           1.1808   -4.7768    1.7753 H       1  LIG1        0.1232
     10 S           1.3198   -0.2110    1.3263 S.3     1  LIG1       -0.1403
     11 H           1.2496    1.1168    1.1722 H       1  LIG1        0.1072
     12 C          -0.8308    1.7965   -0.3194 C.ar    1  LIG1        0.0440
     13 C           0.2083    2.5088   -0.8656 C.ar    1  LIG1        0.0537
     14 C           0.0183    3.9358   -0.7722 C.ar    1  LIG1        0.0361
     15 C          -1.1627    4.2544   -0.1631 C.ar    1  LIG1        0.0421
     16 S          -2.0428    2.8404    0.3164 S.2     1  LIG1       -0.0848
     17 C           1.3473    1.9056   -1.4923 C.1     1  LIG1       -0.0674
     18 C           2.3136    1.4138   -2.0094 C.1     1  LIG1       -0.1138
     19 H           3.1668    0.9673   -2.4657 H       1  LIG1        0.1232
     20 S           1.2161    5.0270   -1.4627 S.3     1  LIG1       -0.1403
     21 H           0.5628    6.1438   -1.1241 H       1  LIG1        0.1072
     22 C          -1.7120    5.5883    0.1051 C.ar    1  LIG1        0.0440
     23 C          -1.1573    6.5719    0.8853 C.ar    1  LIG1        0.0537
     24 C          -1.9711    7.7613    0.9487 C.ar    1  LIG1        0.0361
     25 C          -3.1184    7.6338    0.2163 C.ar    1  LIG1        0.0421
     26 S          -3.2124    6.0906   -0.5690 S.2     1  LIG1       -0.0848
     27 C           0.0810    6.4247    1.5924 C.1     1  LIG1       -0.0674
     28 C           1.1231    6.3216    2.1815 C.1     1  LIG1       -0.1138
     29 H           2.0492    6.2253    2.6997 H       1  LIG1        0.1232
     30 S          -1.4620    9.1065    1.9669 S.3     1  LIG1       -0.1403
     31 H          -2.4672    9.9161    1.6134 H       1  LIG1        0.1072
     32 C          -4.2115    8.6012    0.0662 C.ar    1  LIG1        0.0434
     33 C          -4.1424    9.8726   -0.4465 C.ar    1  LIG1        0.0531
     34 C          -5.4197   10.5437   -0.4326 C.ar    1  LIG1        0.0278
     35 C          -6.4049    9.7545    0.0701 C.ar    1  LIG1       -0.0093
     36 S          -5.8167    8.2101    0.5539 S.2     1  LIG1       -0.0937
     37 H          -7.4491    9.9953    0.1885 H       1  LIG1        0.0705
     38 C          -2.9424   10.4698   -0.9567 C.1     1  LIG1       -0.0674
     39 C          -1.9443   10.9930   -1.3749 C.1     1  LIG1       -0.1138
     40 H          -1.0551   11.4492   -1.7460 H       1  LIG1        0.1232
     41 S          -5.5584   12.2022   -1.0359 S.3     1  LIG1       -0.1409
     42 H          -6.8714   12.2966   -0.8073 H       1  LIG1        0.1072
@<TRIPOS>BOND
     1    19    18    1
     2    18    17    3
     3    40    39    1
     4    17    13    1
     5    20    21    1
     6    20    14    1
     7    39    38    3
     8    41    42    1
     9    41    34    1
    10     5     1   ar
    11     5     4   ar
    12    38    33    1
    13    13    14   ar
    14    13    12   ar
    15    14    15   ar
    16     6     1    1
    17    26    22   ar
    18    26    25   ar
    19    33    34   ar
    20    33    32   ar
    21    34    35   ar
    22     1     2   ar
    23    12     4    1
    24    12    16   ar
    25     4     3   ar
    26    15    22    1
    27    15    16   ar
    28    32    25    1
    29    32    36   ar
    30    35    37    1
    31    35    36   ar
    32    22    23   ar
    33    25    24   ar
    34     2     3   ar
    35     2     7    1
    36     3    10    1
    37     7     8    3
    38    23    24   ar
    39    23    27    1
    40    24    30    1
    41    11    10    1
    42     8     9    1
    43    27    28    3
    44    31    30    1
    45    28    29    1
