@<TRIPOS>MOLECULE
mol_data/opt/m06hf/geoms/mol2/5eg5eg-.out
 22 23 0 0 0
SMALL
GASTEIGER

@<TRIPOS>ATOM
      1 C          -1.8134   -1.7589    1.0020 C.ar    1  LIG1       -0.0072
      2 C          -0.7488   -1.8527    0.1544 C.ar    1  LIG1        0.0454
      3 C          -0.3035   -0.5616   -0.3183 C.ar    1  LIG1        0.0355
      4 C          -1.0520    0.4568    0.1992 C.ar    1  LIG1        0.0414
      5 S          -2.2928   -0.1368    1.2597 S.2     1  LIG1       -0.0937
      6 H          -2.3241   -2.5759    1.4843 H       1  LIG1        0.0706
      7 C          -0.1387   -3.0909   -0.2425 C.1     1  LIG1       -0.0680
      8 C           0.3835   -4.1168   -0.5872 C.1     1  LIG1       -0.1139
      9 H           0.8446   -5.0280   -0.8924 H       1  LIG1        0.1232
     10 S           1.0238   -0.4611   -1.4739 S.3     1  LIG1       -0.1403
     11 H           1.0696    0.8763   -1.4912 H       1  LIG1        0.1072
     12 C          -0.9213    1.8967   -0.0506 C.ar    1  LIG1        0.0434
     13 C           0.1643    2.6957    0.2090 C.ar    1  LIG1        0.0531
     14 C          -0.0549    4.0702   -0.1720 C.ar    1  LIG1        0.0278
     15 C          -1.2953    4.2640   -0.6910 C.ar    1  LIG1       -0.0093
     16 S          -2.2081    2.8041   -0.7523 S.2     1  LIG1       -0.0937
     17 H          -1.7260    5.1869   -1.0438 H       1  LIG1        0.0705
     18 C           1.3805    2.2251    0.8060 C.1     1  LIG1       -0.0674
     19 C           2.4135    1.8425    1.2864 C.1     1  LIG1       -0.1138
     20 H           3.3271    1.4919    1.7086 H       1  LIG1        0.1232
     21 S           1.2192    5.2735    0.0809 S.3     1  LIG1       -0.1409
     22 H           0.5330    6.2858   -0.4610 H       1  LIG1        0.1072
@<TRIPOS>BOND
     1    11    10    1
     2    10     3    1
     3    17    15    1
     4     9     8    1
     5    16    15   ar
     6    16    12   ar
     7    15    14   ar
     8     8     7    3
     9    22    21    1
    10     3     2   ar
    11     3     4   ar
    12     7     2    1
    13    14    21    1
    14    14    13   ar
    15    12     4    1
    16    12    13   ar
    17     2     1   ar
    18     4     5   ar
    19    13    18    1
    20    18    19    3
    21     1     5   ar
    22     1     6    1
    23    19    20    1
