@<TRIPOS>MOLECULE
mol_data/opt/m06hf/geoms/mol2/5eg5eg5eg5eg-.out
 42 45 0 0 0
SMALL
GASTEIGER

@<TRIPOS>ATOM
      1 C          -1.7734   -1.9866    0.4736 C.ar    1  LIG1       -0.0072
      2 C          -0.5882   -1.9067   -0.1971 C.ar    1  LIG1        0.0454
      3 C          -0.1123   -0.5476   -0.3178 C.ar    1  LIG1        0.0355
      4 C          -0.9591    0.3423    0.2801 C.ar    1  LIG1        0.0415
      5 S          -2.3338   -0.4534    0.9820 S.2     1  LIG1       -0.0937
      6 H          -2.3300   -2.8837    0.6905 H       1  LIG1        0.0706
      7 C           0.1133   -3.0358   -0.7407 C.1     1  LIG1       -0.0680
      8 C           0.7204   -3.9629   -1.2043 C.1     1  LIG1       -0.1139
      9 H           1.2591   -4.7843   -1.6167 H       1  LIG1        0.1232
     10 S           1.3715   -0.2142   -1.2067 S.3     1  LIG1       -0.1403
     11 H           1.2931    1.1147   -1.0668 H       1  LIG1        0.1072
     12 C          -0.8323    1.8016    0.3565 C.ar    1  LIG1        0.0440
     13 C           0.1882    2.5222    0.9262 C.ar    1  LIG1        0.0537
     14 C          -0.0030    3.9476    0.8140 C.ar    1  LIG1        0.0361
     15 C          -1.1666    4.2569    0.1676 C.ar    1  LIG1        0.0421
     16 S          -2.0282    2.8358   -0.3244 S.2     1  LIG1       -0.0848
     17 C           1.3101    1.9284    1.5916 C.1     1  LIG1       -0.0674
     18 C           2.2623    1.4443    2.1411 C.1     1  LIG1       -0.1138
     19 H           3.1030    1.0047    2.6263 H       1  LIG1        0.1232
     20 S           1.1708    5.0490    1.5291 S.3     1  LIG1       -0.1403
     21 H           0.5247    6.1606    1.1607 H       1  LIG1        0.1072
     22 C          -1.7116    5.5865   -0.1291 C.ar    1  LIG1        0.0440
     23 C          -1.1371    6.5645   -0.9020 C.ar    1  LIG1        0.0537
     24 C          -1.9520    7.7508   -1.0002 C.ar    1  LIG1        0.0361
     25 C          -3.1197    7.6267   -0.3003 C.ar    1  LIG1        0.0421
     26 S          -3.2323    6.0906    0.4964 S.2     1  LIG1       -0.0848
     27 C           0.1217    6.4145   -1.5714 C.1     1  LIG1       -0.0674
     28 C           1.1808    6.3090   -2.1289 C.1     1  LIG1       -0.1138
     29 H           2.1219    6.2106   -2.6189 H       1  LIG1        0.1232
     30 S          -1.4170    9.0880   -2.0158 S.3     1  LIG1       -0.1403
     31 H          -2.4345    9.8978   -1.6995 H       1  LIG1        0.1072
     32 C          -4.2193    8.5922   -0.1911 C.ar    1  LIG1        0.0434
     33 C          -4.1685    9.8685    0.3115 C.ar    1  LIG1        0.0531
     34 C          -5.4467   10.5357    0.2543 C.ar    1  LIG1        0.0278
     35 C          -6.4147    9.7390   -0.2695 C.ar    1  LIG1       -0.0093
     36 S          -5.8085    8.1919   -0.7216 S.2     1  LIG1       -0.0937
     37 H          -7.4557    9.9757   -0.4204 H       1  LIG1        0.0705
     38 C          -2.9855   10.4738    0.8510 C.1     1  LIG1       -0.0674
     39 C          -2.0014   11.0039    1.2931 C.1     1  LIG1       -0.1138
     40 H          -1.1246   11.4660    1.6855 H       1  LIG1        0.1232
     41 S          -5.6073   12.1993    0.8378 S.3     1  LIG1       -0.1409
     42 H          -6.9133   12.2877    0.5703 H       1  LIG1        0.1072
@<TRIPOS>BOND
     1    29    28    1
     2    28    27    3
     3    30    31    1
     4    30    24    1
     5     9     8    1
     6    27    23    1
     7    10    11    1
     8    10     3    1
     9     8     7    3
    10    24    23   ar
    11    24    25   ar
    12    23    22   ar
    13     7     2    1
    14    36    35   ar
    15    36    32   ar
    16    37    35    1
    17    16    15   ar
    18    16    12   ar
    19     3     2   ar
    20     3     4   ar
    21    25    32    1
    22    25    26   ar
    23    35    34   ar
    24     2     1   ar
    25    32    33   ar
    26    22    15    1
    27    22    26   ar
    28    15    14   ar
    29    34    33   ar
    30    34    41    1
    31     4    12    1
    32     4     5   ar
    33    33    38    1
    34    12    13   ar
    35     1     6    1
    36     1     5   ar
    37    42    41    1
    38    14    13   ar
    39    14    20    1
    40    38    39    3
    41    13    17    1
    42    21    20    1
    43    39    40    1
    44    17    18    3
    45    18    19    1
