@<TRIPOS>MOLECULE
mol_data/opt/m06hf/geoms/mol2/5eg5eg5eg.out
 32 34 0 0 0
SMALL
GASTEIGER

@<TRIPOS>ATOM
      1 C          -1.8207   -1.9219    0.5612 C.ar    1  LIG1       -0.0072
      2 C          -0.7642   -1.8209   -0.2958 C.ar    1  LIG1        0.0454
      3 C          -0.2883   -0.4628   -0.4285 C.ar    1  LIG1        0.0355
      4 C          -1.0062    0.4054    0.3440 C.ar    1  LIG1        0.0415
      5 S          -2.2588   -0.4098    1.2289 S.2     1  LIG1       -0.0937
      6 H          -2.3499   -2.8229    0.8250 H       1  LIG1        0.0706
      7 C          -0.1846   -2.9290   -1.0017 C.1     1  LIG1       -0.0680
      8 C           0.3165   -3.8403   -1.6031 C.1     1  LIG1       -0.1139
      9 H           0.7604   -4.6494   -2.1351 H       1  LIG1        0.1232
     10 S           1.0283   -0.1033   -1.5444 S.3     1  LIG1       -0.1403
     11 H           1.1225    1.1870   -1.2067 H       1  LIG1        0.1072
     12 C          -0.8304    1.8557    0.4782 C.ar    1  LIG1        0.0440
     13 C           0.2876    2.5179    0.9209 C.ar    1  LIG1        0.0537
     14 C           0.1269    3.9510    0.9183 C.ar    1  LIG1        0.0361
     15 C          -1.1137    4.3242    0.4844 C.ar    1  LIG1        0.0421
     16 S          -2.0852    2.9545    0.0571 S.2     1  LIG1       -0.0848
     17 C           1.4783    1.8581    1.3703 C.1     1  LIG1       -0.0674
     18 C           2.4837    1.3140    1.7392 C.1     1  LIG1       -0.1138
     19 H           3.3716    0.8230    2.0651 H       1  LIG1        0.1232
     20 S           1.4358    4.9765    1.5025 S.3     1  LIG1       -0.1403
     21 H           0.8355    6.1308    1.1872 H       1  LIG1        0.1072
     22 C          -1.6555    5.6835    0.3710 C.ar    1  LIG1        0.0434
     23 C          -1.1904    6.6998   -0.4258 C.ar    1  LIG1        0.0531
     24 C          -1.9539    7.9146   -0.2743 C.ar    1  LIG1        0.0278
     25 C          -2.9696    7.7698    0.6169 C.ar    1  LIG1       -0.0093
     26 S          -3.0164    6.1895    1.2976 S.2     1  LIG1       -0.0937
     27 H          -3.6984    8.5072    0.9124 H       1  LIG1        0.0705
     28 C          -0.0782    6.5688   -1.3213 C.1     1  LIG1       -0.0674
     29 C           0.8605    6.4775   -2.0661 C.1     1  LIG1       -0.1138
     30 H           1.6937    6.3865   -2.7243 H       1  LIG1        0.1232
     31 S          -1.5252    9.3509   -1.2159 S.3     1  LIG1       -0.1409
     32 H          -2.4930   10.1181   -0.7062 H       1  LIG1        0.1072
@<TRIPOS>BOND
     1    30    29    1
     2     9     8    1
     3    29    28    3
     4     8     7    3
     5    10    11    1
     6    10     3    1
     7    28    23    1
     8    31    32    1
     9    31    24    1
    10     7     2    1
    11     3     2   ar
    12     3     4   ar
    13    23    24   ar
    14    23    22   ar
    15     2     1   ar
    16    24    25   ar
    17    16    12   ar
    18    16    15   ar
    19     4    12    1
    20     4     5   ar
    21    22    15    1
    22    22    26   ar
    23    12    13   ar
    24    15    14   ar
    25     1     6    1
    26     1     5   ar
    27    25    27    1
    28    25    26   ar
    29    14    13   ar
    30    14    20    1
    31    13    17    1
    32    21    20    1
    33    17    18    3
    34    18    19    1
