@<TRIPOS>MOLECULE
mol_data/opt/m06hf/geoms/mol2/5eg5eg-5eg5eg-.out
 42 45 0 0 0
SMALL
GASTEIGER

@<TRIPOS>ATOM
      1 C          -0.7289   -1.2896    2.5279 C.ar    1  LIG1       -0.0072
      2 C          -0.7695   -1.6488    1.2125 C.ar    1  LIG1        0.0454
      3 C          -0.6498   -0.5132    0.3261 C.ar    1  LIG1        0.0355
      4 C          -0.5184    0.6584    1.0158 C.ar    1  LIG1        0.0415
      5 S          -0.5364    0.3971    2.7325 S.2     1  LIG1       -0.0937
      6 H          -0.7969   -1.9505    3.3764 H       1  LIG1        0.0706
      7 C          -0.9228   -2.9984    0.7467 C.1     1  LIG1       -0.0680
      8 C          -1.0489   -4.1197    0.3349 C.1     1  LIG1       -0.1139
      9 H          -1.1590   -5.1150   -0.0287 H       1  LIG1        0.1232
     10 S          -0.7446   -0.7554   -1.4160 S.3     1  LIG1       -0.1403
     11 H          -0.4996    0.5198   -1.7356 H       1  LIG1        0.1072
     12 C          -0.3989    2.0197    0.4804 C.ar    1  LIG1        0.0440
     13 C           0.5862    2.5119   -0.3394 C.ar    1  LIG1        0.0537
     14 C           0.3847    3.8978   -0.6853 C.ar    1  LIG1        0.0361
     15 C          -0.7364    4.4120   -0.0989 C.ar    1  LIG1        0.0421
     16 S          -1.5667    3.2257    0.8541 S.2     1  LIG1       -0.0848
     17 C           1.7004    1.7375   -0.8021 C.1     1  LIG1       -0.0674
     18 C           2.6280    1.0940   -1.2129 C.1     1  LIG1       -0.1138
     19 H           3.4466    0.5143   -1.5724 H       1  LIG1        0.1232
     20 S           1.5055    4.6971   -1.7851 S.3     1  LIG1       -0.1403
     21 H           0.9186    5.8964   -1.7014 H       1  LIG1        0.1072
     22 C          -1.2675    5.7765   -0.2080 C.ar    1  LIG1        0.0440
     23 C          -0.6639    6.9381    0.2046 C.ar    1  LIG1        0.0537
     24 C          -1.4650    8.1077   -0.0604 C.ar    1  LIG1        0.0361
     25 C          -2.6545    7.7875   -0.6526 C.ar    1  LIG1        0.0421
     26 S          -2.8097    6.0813   -0.9067 S.2     1  LIG1       -0.0848
     27 C           0.6256    6.9846    0.8296 C.1     1  LIG1       -0.0674
     28 C           1.7140    7.0319    1.3360 C.1     1  LIG1       -0.1138
     29 H           2.6815    7.0645    1.7814 H       1  LIG1        0.1232
     30 S          -0.8518    9.7081    0.3474 S.3     1  LIG1       -0.1403
     31 H          -1.9434   10.3541   -0.0789 H       1  LIG1        0.1072
     32 C          -3.7351    8.6949   -1.0590 C.ar    1  LIG1        0.0434
     33 C          -4.4962    9.4950   -0.2439 C.ar    1  LIG1        0.0531
     34 C          -5.4872   10.2449   -0.9766 C.ar    1  LIG1        0.0278
     35 C          -5.4427    9.9810   -2.3089 C.ar    1  LIG1       -0.0093
     36 S          -4.2126    8.8442   -2.7057 S.2     1  LIG1       -0.0937
     37 H          -6.0653   10.3963   -3.0849 H       1  LIG1        0.0705
     38 C          -4.3388    9.5614    1.1795 C.1     1  LIG1       -0.0674
     39 C          -4.2076    9.6337    2.3716 C.1     1  LIG1       -0.1138
     40 H          -4.0830    9.6879    3.4289 H       1  LIG1        0.1232
     41 S          -6.5853   11.3365   -0.1171 S.3     1  LIG1       -0.1409
     42 H          -7.3466   11.6051   -1.1820 H       1  LIG1        0.1072
@<TRIPOS>BOND
     1    37    35    1
     2    36    35   ar
     3    36    32   ar
     4    35    34   ar
     5    20    21    1
     6    20    14    1
     7    11    10    1
     8    19    18    1
     9    10     3    1
    10    18    17    3
    11    42    41    1
    12    32    25    1
    13    32    33   ar
    14    34    33   ar
    15    34    41    1
    16    26    25   ar
    17    26    22   ar
    18    17    13    1
    19    14    13   ar
    20    14    15   ar
    21    25    24   ar
    22    13    12   ar
    23    33    38    1
    24    22    15    1
    25    22    23   ar
    26    15    16   ar
    27    31    30    1
    28    24    23   ar
    29    24    30    1
    30     9     8    1
    31    23    27    1
    32     3     4   ar
    33     3     2   ar
    34     8     7    3
    35    12    16   ar
    36    12     4    1
    37     7     2    1
    38    27    28    3
    39     4     5   ar
    40    38    39    3
    41     2     1   ar
    42    28    29    1
    43    39    40    1
    44     1     5   ar
    45     1     6    1
