@<TRIPOS>MOLECULE
mol_data/opt/m06hf/geoms/mol2/5eg5eg5eg-.out
 32 34 0 0 0
SMALL
GASTEIGER

@<TRIPOS>ATOM
      1 C          -1.8018   -1.9313    0.5363 C.ar    1  LIG1       -0.0072
      2 C          -0.7251   -1.8234   -0.2942 C.ar    1  LIG1        0.0454
      3 C          -0.2567   -0.4617   -0.4170 C.ar    1  LIG1        0.0355
      4 C          -1.0000    0.4020    0.3361 C.ar    1  LIG1        0.0415
      5 S          -2.2683   -0.4219    1.1905 S.2     1  LIG1       -0.0937
      6 H          -2.3308   -2.8359    0.7879 H       1  LIG1        0.0706
      7 C          -0.1188   -2.9278   -0.9834 C.1     1  LIG1       -0.0680
      8 C           0.4052   -3.8356   -1.5703 C.1     1  LIG1       -0.1139
      9 H           0.8670   -4.6427   -2.0900 H       1  LIG1        0.1232
     10 S           1.0851   -0.0935   -1.4995 S.3     1  LIG1       -0.1403
     11 H           1.1405    1.2051   -1.1834 H       1  LIG1        0.1072
     12 C          -0.8366    1.8532    0.4745 C.ar    1  LIG1        0.0440
     13 C           0.2663    2.5218    0.9444 C.ar    1  LIG1        0.0537
     14 C           0.0969    3.9539    0.9386 C.ar    1  LIG1        0.0361
     15 C          -1.1349    4.3200    0.4747 C.ar    1  LIG1        0.0421
     16 S          -2.0877    2.9446    0.0238 S.2     1  LIG1       -0.0848
     17 C           1.4497    1.8691    1.4224 C.1     1  LIG1       -0.0674
     18 C           2.4492    1.3310    1.8156 C.1     1  LIG1       -0.1138
     19 H           3.3319    0.8455    2.1627 H       1  LIG1        0.1232
     20 S           1.3847    4.9870    1.5553 S.3     1  LIG1       -0.1403
     21 H           0.7858    6.1378    1.2254 H       1  LIG1        0.1072
     22 C          -1.6817    5.6761    0.3486 C.ar    1  LIG1        0.0434
     23 C          -1.2028    6.6959   -0.4355 C.ar    1  LIG1        0.0531
     24 C          -1.9767    7.9061   -0.3019 C.ar    1  LIG1        0.0278
     25 C          -3.0134    7.7546    0.5636 C.ar    1  LIG1       -0.0093
     26 S          -3.0683    6.1732    1.2412 S.2     1  LIG1       -0.0937
     27 H          -3.7537    8.4874    0.8415 H       1  LIG1        0.0705
     28 C          -0.0677    6.5721   -1.3031 C.1     1  LIG1       -0.0674
     29 C           0.8900    6.4869   -2.0239 C.1     1  LIG1       -0.1138
     30 H           1.7401    6.4021   -2.6609 H       1  LIG1        0.1232
     31 S          -1.5335    9.3460   -1.2315 S.3     1  LIG1       -0.1409
     32 H          -2.5178   10.1070   -0.7445 H       1  LIG1        0.1072
@<TRIPOS>BOND
     1    30    29    1
     2     9     8    1
     3    29    28    3
     4     8     7    3
     5    10    11    1
     6    10     3    1
     7    28    23    1
     8    31    32    1
     9    31    24    1
    10     7     2    1
    11    23    24   ar
    12    23    22   ar
    13     3     2   ar
    14     3     4   ar
    15    24    25   ar
    16     2     1   ar
    17    16    12   ar
    18    16    15   ar
    19     4    12    1
    20     4     5   ar
    21    22    15    1
    22    22    26   ar
    23    12    13   ar
    24    15    14   ar
    25     1     6    1
    26     1     5   ar
    27    25    27    1
    28    25    26   ar
    29    14    13   ar
    30    14    20    1
    31    13    17    1
    32    21    20    1
    33    17    18    3
    34    18    19    1
