@<TRIPOS>MOLECULE
mol_data/opt/m06hf/geoms/mol2/5eg5eg-5eg.out
 32 34 0 0 0
SMALL
GASTEIGER

@<TRIPOS>ATOM
      1 C          -1.3349   -1.5861    1.8246 C.ar    1  LIG1       -0.0072
      2 C          -0.7659   -1.8324    0.6098 C.ar    1  LIG1        0.0454
      3 C          -0.4415   -0.6189   -0.1052 C.ar    1  LIG1        0.0355
      4 C          -0.7749    0.4971    0.6076 C.ar    1  LIG1        0.0415
      5 S          -1.4844    0.0881    2.1408 S.2     1  LIG1       -0.0937
      6 H          -1.6650   -2.3210    2.5402 H       1  LIG1        0.0706
      7 C          -0.5205   -3.1453    0.0813 C.1     1  LIG1       -0.0680
      8 C          -0.3073   -4.2335   -0.3818 C.1     1  LIG1       -0.1139
      9 H          -0.1181   -5.1984   -0.7928 H       1  LIG1        0.1232
     10 S           0.2527   -0.7196   -1.7212 S.3     1  LIG1       -0.1403
     11 H           0.3563    0.6025   -1.8952 H       1  LIG1        0.1072
     12 C          -0.6085    1.9038    0.2252 C.ar    1  LIG1        0.0440
     13 C           0.5641    2.5537   -0.0689 C.ar    1  LIG1        0.0537
     14 C           0.3659    3.9426   -0.4056 C.ar    1  LIG1        0.0361
     15 C          -0.9493    4.3036   -0.3342 C.ar    1  LIG1        0.0421
     16 S          -1.9595    2.9673    0.1182 S.2     1  LIG1       -0.0848
     17 C           1.8543    1.9300   -0.0360 C.1     1  LIG1       -0.0674
     18 C           2.9416    1.4193   -0.0264 C.1     1  LIG1       -0.1138
     19 H           3.9029    0.9598   -0.0143 H       1  LIG1        0.1232
     20 S           1.7434    4.9337   -0.8779 S.3     1  LIG1       -0.1403
     21 H           1.0496    6.0762   -0.9314 H       1  LIG1        0.1072
     22 C          -1.5382    5.6209   -0.6028 C.ar    1  LIG1        0.0434
     23 C          -1.3016    6.7905    0.0743 C.ar    1  LIG1        0.0531
     24 C          -2.0472    7.9023   -0.4642 C.ar    1  LIG1        0.0278
     25 C          -2.8270    7.5322   -1.5138 C.ar    1  LIG1       -0.0093
     26 S          -2.6641    5.8577   -1.8851 S.2     1  LIG1       -0.0937
     27 H          -3.4897    8.1529   -2.0949 H       1  LIG1        0.0705
     28 C          -0.4209    6.8984    1.2007 C.1     1  LIG1       -0.0674
     29 C           0.3232    7.0089    2.1375 C.1     1  LIG1       -0.1138
     30 H           0.9824    7.0956    2.9704 H       1  LIG1        0.1232
     31 S          -1.8800    9.5085    0.2604 S.3     1  LIG1       -0.1409
     32 H          -2.7206   10.1145   -0.5844 H       1  LIG1        0.1072
@<TRIPOS>BOND
     1    27    25    1
     2    11    10    1
     3    26    25   ar
     4    26    22   ar
     5    10     3    1
     6    25    24   ar
     7    21    20    1
     8    20    14    1
     9     9     8    1
    10    22    15    1
    11    22    23   ar
    12    32    31    1
    13    24    23   ar
    14    24    31    1
    15    14    15   ar
    16    14    13   ar
    17     8     7    3
    18    15    16   ar
    19     3     4   ar
    20     3     2   ar
    21    13    17    1
    22    13    12   ar
    23    17    18    3
    24    18    19    1
    25    23    28    1
    26     7     2    1
    27    16    12   ar
    28    12     4    1
    29     4     5   ar
    30     2     1   ar
    31    28    29    3
    32     1     5   ar
    33     1     6    1
    34    29    30    1
