@<TRIPOS>MOLECULE
mol_data/opt/m06hf/geoms/mol2/5eg5eg.out
 22 23 0 0 0
SMALL
GASTEIGER

@<TRIPOS>ATOM
      1 C          -1.8223   -1.7467    1.0286 C.ar    1  LIG1       -0.0072
      2 C          -0.7501   -1.8508    0.1919 C.ar    1  LIG1        0.0454
      3 C          -0.3004   -0.5655   -0.2925 C.ar    1  LIG1        0.0355
      4 C          -1.0537    0.4591    0.2056 C.ar    1  LIG1        0.0414
      5 S          -2.3039   -0.1216    1.2622 S.2     1  LIG1       -0.0937
      6 H          -2.3375   -2.5578    1.5160 H       1  LIG1        0.0706
      7 C          -0.1365   -3.0937   -0.1843 C.1     1  LIG1       -0.0680
      8 C           0.3887   -4.1239   -0.5116 C.1     1  LIG1       -0.1139
      9 H           0.8525   -5.0386   -0.8012 H       1  LIG1        0.1232
     10 S           1.0374   -0.4790   -1.4371 S.3     1  LIG1       -0.1403
     11 H           1.0835    0.8581   -1.4700 H       1  LIG1        0.1072
     12 C          -0.9207    1.8959   -0.0606 C.ar    1  LIG1        0.0434
     13 C           0.1623    2.6982    0.1993 C.ar    1  LIG1        0.0531
     14 C          -0.0536    4.0679   -0.2005 C.ar    1  LIG1        0.0278
     15 C          -1.2892    4.2551   -0.7333 C.ar    1  LIG1       -0.0093
     16 S          -2.2012    2.7943   -0.7851 S.2     1  LIG1       -0.0937
     17 H          -1.7167    5.1735   -1.1014 H       1  LIG1        0.0705
     18 C           1.3730    2.2352    0.8131 C.1     1  LIG1       -0.0674
     19 C           2.4016    1.8588    1.3077 C.1     1  LIG1       -0.1138
     20 H           3.3113    1.5136    1.7425 H       1  LIG1        0.1232
     21 S           1.2178    5.2747    0.0494 S.3     1  LIG1       -0.1409
     22 H           0.5364    6.2800   -0.5111 H       1  LIG1        0.1072
@<TRIPOS>BOND
     1    11    10    1
     2    10     3    1
     3    17    15    1
     4     9     8    1
     5    16    15   ar
     6    16    12   ar
     7    15    14   ar
     8     8     7    3
     9    22    21    1
    10     3     2   ar
    11     3     4   ar
    12    14    21    1
    13    14    13   ar
    14     7     2    1
    15    12    13   ar
    16    12     4    1
    17     2     1   ar
    18    13    18    1
    19     4     5   ar
    20    18    19    3
    21     1     5   ar
    22     1     6    1
    23    19    20    1
