@<TRIPOS>MOLECULE
mol_data/opt/m06hf/geoms/mol2/5eg5eg-5eg5eg.out
 42 45 0 0 0
SMALL
GASTEIGER

@<TRIPOS>ATOM
      1 C          -1.9054   -1.9891    0.3435 C.ar    1  LIG1       -0.0072
      2 C          -0.6721   -1.9157   -0.2348 C.ar    1  LIG1        0.0454
      3 C          -0.1691   -0.5622   -0.2931 C.ar    1  LIG1        0.0355
      4 C          -1.0457    0.3299    0.2566 C.ar    1  LIG1        0.0415
      5 S          -2.4805   -0.4568    0.8380 S.2     1  LIG1       -0.0937
      6 H          -2.4896   -2.8812    0.5007 H       1  LIG1        0.0706
      7 C           0.0522   -3.0455   -0.7459 C.1     1  LIG1       -0.0680
      8 C           0.6791   -3.9735   -1.1805 C.1     1  LIG1       -0.1139
      9 H           1.2355   -4.7956   -1.5671 H       1  LIG1        0.1232
     10 S           1.3820   -0.2361   -1.0617 S.3     1  LIG1       -0.1403
     11 H           1.3123    1.0912   -0.9025 H       1  LIG1        0.1072
     12 C          -0.9042    1.7854    0.3705 C.ar    1  LIG1        0.0440
     13 C           0.0808    2.4794    1.0289 C.ar    1  LIG1        0.0537
     14 C          -0.0811    3.9094    0.9303 C.ar    1  LIG1        0.0361
     15 C          -1.1882    4.2486    0.2045 C.ar    1  LIG1        0.0421
     16 S          -2.0305    2.8504   -0.3780 S.2     1  LIG1       -0.0848
     17 C           1.1409    1.8560    1.7649 C.1     1  LIG1       -0.0674
     18 C           2.0419    1.3471    2.3749 C.1     1  LIG1       -0.1138
     19 H           2.8374    0.8857    2.9132 H       1  LIG1        0.1232
     20 S           1.0512    4.9791    1.7524 S.3     1  LIG1       -0.1403
     21 H           0.4507    6.1071    1.3582 H       1  LIG1        0.1072
     22 C          -1.6902    5.5918   -0.1065 C.ar    1  LIG1        0.0440
     23 C          -1.0452    6.5745   -0.8151 C.ar    1  LIG1        0.0537
     24 C          -1.8334    7.7751   -0.9511 C.ar    1  LIG1        0.0361
     25 C          -3.0521    7.6567   -0.3433 C.ar    1  LIG1        0.0421
     26 S          -3.2463    6.1083    0.4129 S.2     1  LIG1       -0.0848
     27 C           0.2581    6.4170   -1.3910 C.1     1  LIG1       -0.0674
     28 C           1.3545    6.3050   -1.8695 C.1     1  LIG1       -0.1138
     29 H           2.3283    6.2008   -2.2894 H       1  LIG1        0.1232
     30 S          -1.2045    9.1220   -1.8978 S.3     1  LIG1       -0.1403
     31 H          -2.2311    9.9418   -1.6430 H       1  LIG1        0.1072
     32 C          -4.1428    8.6372   -0.2982 C.ar    1  LIG1        0.0434
     33 C          -4.1118    9.9031    0.2314 C.ar    1  LIG1        0.0531
     34 C          -5.3723   10.5913    0.0915 C.ar    1  LIG1        0.0278
     35 C          -6.3095    9.8195   -0.5187 C.ar    1  LIG1       -0.0093
     36 S          -5.6932    8.2716   -0.9539 S.2     1  LIG1       -0.0937
     37 H          -7.3327   10.0753   -0.7427 H       1  LIG1        0.0705
     38 C          -2.9642   10.4799    0.8696 C.1     1  LIG1       -0.0674
     39 C          -2.0087   10.9863    1.3944 C.1     1  LIG1       -0.1138
     40 H          -1.1573   11.4273    1.8604 H       1  LIG1        0.1232
     41 S          -5.5526   12.2463    0.6933 S.3     1  LIG1       -0.1409
     42 H          -6.8334   12.3601    0.3305 H       1  LIG1        0.1072
@<TRIPOS>BOND
     1    29    28    1
     2    30    31    1
     3    30    24    1
     4    28    27    3
     5     9     8    1
     6    27    23    1
     7     8     7    3
     8    10    11    1
     9    10     3    1
    10    36    35   ar
    11    36    32   ar
    12    24    23   ar
    13    24    25   ar
    14    23    22   ar
    15     7     2    1
    16    37    35    1
    17    35    34   ar
    18    16    15   ar
    19    16    12   ar
    20    25    32    1
    21    25    26   ar
    22    32    33   ar
    23     3     2   ar
    24     3     4   ar
    25     2     1   ar
    26    22    15    1
    27    22    26   ar
    28    34    33   ar
    29    34    41    1
    30    15    14   ar
    31    33    38    1
    32     4    12    1
    33     4     5   ar
    34    42    41    1
    35     1     6    1
    36     1     5   ar
    37    12    13   ar
    38    38    39    3
    39    14    13   ar
    40    14    20    1
    41    13    17    1
    42    21    20    1
    43    39    40    1
    44    17    18    3
    45    18    19    1
