@<TRIPOS>MOLECULE
mol_data/opt/m06hf/geoms/mol2/5eg5eg-5eg-5eg-.out
 42 45 0 0 0
SMALL
GASTEIGER

@<TRIPOS>ATOM
      1 C          -1.8582   -1.9922   -0.3266 C.ar    1  LIG1       -0.0072
      2 C          -0.6434   -1.9102    0.2885 C.ar    1  LIG1        0.0454
      3 C          -0.1497   -0.5538    0.3578 C.ar    1  LIG1        0.0355
      4 C          -1.0141    0.3318   -0.2210 C.ar    1  LIG1        0.0415
      5 S          -2.4264   -0.4646   -0.8431 S.2     1  LIG1       -0.0937
      6 H          -2.4326   -2.8879   -0.4985 H       1  LIG1        0.0706
      7 C           0.0712   -3.0345    0.8249 C.1     1  LIG1       -0.0680
      8 C           0.6896   -3.9577    1.2812 C.1     1  LIG1       -0.1139
      9 H           1.2385   -4.7756    1.6871 H       1  LIG1        0.1232
     10 S           1.3755   -0.2168    1.1720 S.3     1  LIG1       -0.1403
     11 H           1.3033    1.1096    1.0067 H       1  LIG1        0.1072
     12 C          -0.8772    1.7877   -0.3352 C.ar    1  LIG1        0.0440
     13 C           0.1234    2.4851   -0.9657 C.ar    1  LIG1        0.0537
     14 C          -0.0491    3.9146   -0.8766 C.ar    1  LIG1        0.0361
     15 C          -1.1796    4.2498   -0.1858 C.ar    1  LIG1        0.0421
     16 S          -2.0316    2.8487    0.3754 S.2     1  LIG1       -0.0848
     17 C           1.2087    1.8655   -1.6673 C.1     1  LIG1       -0.0674
     18 C           2.1306    1.3598   -2.2482 C.1     1  LIG1       -0.1138
     19 H           2.9444    0.9011   -2.7607 H       1  LIG1        0.1232
     20 S           1.1017    4.9880   -1.6674 S.3     1  LIG1       -0.1403
     21 H           0.4834    6.1139   -1.2952 H       1  LIG1        0.1072
     22 C          -1.6982    5.5911    0.1056 C.ar    1  LIG1        0.0440
     23 C          -1.0803    6.5796    0.8301 C.ar    1  LIG1        0.0537
     24 C          -1.8788    7.7761    0.9385 C.ar    1  LIG1        0.0361
     25 C          -3.0780    7.6490    0.2947 C.ar    1  LIG1        0.0421
     26 S          -3.2408    6.0972   -0.4620 S.2     1  LIG1       -0.0848
     27 C           0.2059    6.4312    1.4456 C.1     1  LIG1       -0.0674
     28 C           1.2880    6.3270    1.9572 C.1     1  LIG1       -0.1138
     29 H           2.2493    6.2296    2.4066 H       1  LIG1        0.1232
     30 S          -1.2862    9.1295    1.8991 S.3     1  LIG1       -0.1403
     31 H          -2.3094    9.9426    1.6111 H       1  LIG1        0.1072
     32 C          -4.1723    8.6232    0.2134 C.ar    1  LIG1        0.0434
     33 C          -4.1322    9.8876   -0.3191 C.ar    1  LIG1        0.0531
     34 C          -5.4002   10.5692   -0.2195 C.ar    1  LIG1        0.0278
     35 C          -6.3511    9.7940    0.3645 C.ar    1  LIG1       -0.0093
     36 S          -5.7398    8.2509    0.8232 S.2     1  LIG1       -0.0937
     37 H          -7.3820   10.0446    0.5566 H       1  LIG1        0.0705
     38 C          -2.9691   10.4689   -0.9241 C.1     1  LIG1       -0.0674
     39 C          -2.0009   10.9790   -1.4214 C.1     1  LIG1       -0.1138
     40 H          -1.1382   11.4234   -1.8628 H       1  LIG1        0.1232
     41 S          -5.5713   12.2212   -0.8319 S.3     1  LIG1       -0.1409
     42 H          -6.8631   12.3290   -0.5083 H       1  LIG1        0.1072
@<TRIPOS>BOND
     1    19    18    1
     2    18    17    3
     3    40    39    1
     4    20    21    1
     5    20    14    1
     6    17    13    1
     7    39    38    3
     8    13    14   ar
     9    13    12   ar
    10    38    33    1
    11    14    15   ar
    12     5     1   ar
    13     5     4   ar
    14    41    42    1
    15    41    34    1
    16     6     1    1
    17    26    22   ar
    18    26    25   ar
    19    12     4    1
    20    12    16   ar
    21     1     2   ar
    22    33    34   ar
    23    33    32   ar
    24     4     3   ar
    25    34    35   ar
    26    15    22    1
    27    15    16   ar
    28    22    23   ar
    29    32    25    1
    30    32    36   ar
    31     2     3   ar
    32     2     7    1
    33    25    24   ar
    34     3    10    1
    35    35    37    1
    36    35    36   ar
    37     7     8    3
    38    23    24   ar
    39    23    27    1
    40    24    30    1
    41    11    10    1
    42     8     9    1
    43    27    28    3
    44    31    30    1
    45    28    29    1
