@<TRIPOS>MOLECULE
mol_data/opt/m06hf/geoms/mol2/5eg5eg-5eg-.out
 32 34 0 0 0
SMALL
GASTEIGER

@<TRIPOS>ATOM
      1 C          -1.3364   -1.6064    1.7795 C.ar    1  LIG1       -0.0072
      2 C          -0.7472   -1.8390    0.5716 C.ar    1  LIG1        0.0454
      3 C          -0.4187   -0.6176   -0.1278 C.ar    1  LIG1        0.0355
      4 C          -0.7696    0.4903    0.5892 C.ar    1  LIG1        0.0415
      5 S          -1.5003    0.0641    2.1078 S.2     1  LIG1       -0.0937
      6 H          -1.6734   -2.3493    2.4836 H       1  LIG1        0.0706
      7 C          -0.4863   -3.1459    0.0357 C.1     1  LIG1       -0.0680
      8 C          -0.2598   -4.2288   -0.4335 C.1     1  LIG1       -0.1139
      9 H          -0.0589   -5.1891   -0.8498 H       1  LIG1        0.1232
     10 S           0.3006   -0.7006   -1.7338 S.3     1  LIG1       -0.1403
     11 H           0.3994    0.6235   -1.8949 H       1  LIG1        0.1072
     12 C          -0.6056    1.9012    0.2215 C.ar    1  LIG1        0.0440
     13 C           0.5675    2.5603   -0.0493 C.ar    1  LIG1        0.0537
     14 C           0.3663    3.9508   -0.3773 C.ar    1  LIG1        0.0361
     15 C          -0.9519    4.3036   -0.3229 C.ar    1  LIG1        0.0421
     16 S          -1.9610    2.9578    0.1029 S.2     1  LIG1       -0.0848
     17 C           1.8607    1.9438   -0.0021 C.1     1  LIG1       -0.0674
     18 C           2.9508    1.4392    0.0197 C.1     1  LIG1       -0.1138
     19 H           3.9145    0.9852    0.0424 H       1  LIG1        0.1232
     20 S           1.7449    4.9538   -0.8205 S.3     1  LIG1       -0.1403
     21 H           1.0451    6.0925   -0.8754 H       1  LIG1        0.1072
     22 C          -1.5445    5.6197   -0.5895 C.ar    1  LIG1        0.0434
     23 C          -1.3250    6.7851    0.1007 C.ar    1  LIG1        0.0531
     24 C          -2.0687    7.8970   -0.4401 C.ar    1  LIG1        0.0278
     25 C          -2.8303    7.5312   -1.5044 C.ar    1  LIG1       -0.0093
     26 S          -2.6521    5.8607   -1.8868 S.2     1  LIG1       -0.0937
     27 H          -3.4877    8.1529   -2.0904 H       1  LIG1        0.0705
     28 C          -0.4619    6.8887    1.2410 C.1     1  LIG1       -0.0674
     29 C           0.2674    6.9957    2.1899 C.1     1  LIG1       -0.1138
     30 H           0.9135    7.0792    3.0333 H       1  LIG1        0.1232
     31 S          -1.9219    9.4981    0.3001 S.3     1  LIG1       -0.1409
     32 H          -2.7535   10.1062   -0.5521 H       1  LIG1        0.1072
@<TRIPOS>BOND
     1    27    25    1
     2    11    10    1
     3    26    25   ar
     4    26    22   ar
     5    10     3    1
     6    25    24   ar
     7    21    20    1
     8     9     8    1
     9    20    14    1
    10    22    15    1
    11    22    23   ar
    12    32    31    1
    13    24    23   ar
    14    24    31    1
    15     8     7    3
    16    14    15   ar
    17    14    13   ar
    18    15    16   ar
    19     3     2   ar
    20     3     4   ar
    21    13    17    1
    22    13    12   ar
    23    17    18    3
    24    18    19    1
    25     7     2    1
    26    23    28    1
    27    16    12   ar
    28    12     4    1
    29     2     1   ar
    30     4     5   ar
    31    28    29    3
    32     1     5   ar
    33     1     6    1
    34    29    30    1
