@<TRIPOS>MOLECULE
mol_data/opt/m06hf/geoms/mol2/5eg5eg5eg-5eg.out
 42 45 0 0 0
SMALL
GASTEIGER

@<TRIPOS>ATOM
      1 C          -1.8554   -1.9869    0.4115 C.ar    1  LIG1       -0.0072
      2 C          -0.6249   -1.9122   -0.1725 C.ar    1  LIG1        0.0454
      3 C          -0.1318   -0.5561   -0.2504 C.ar    1  LIG1        0.0355
      4 C          -1.0126    0.3369    0.2912 C.ar    1  LIG1        0.0415
      5 S          -2.4396   -0.4524    0.8884 S.2     1  LIG1       -0.0937
      6 H          -2.4325   -2.8810    0.5825 H       1  LIG1        0.0706
      7 C           0.1055   -3.0434   -0.6718 C.1     1  LIG1       -0.0680
      8 C           0.7374   -3.9724   -1.0969 C.1     1  LIG1       -0.1139
      9 H           1.2981   -4.7955   -1.4750 H       1  LIG1        0.1232
     10 S           1.4138   -0.2288   -1.0294 S.3     1  LIG1       -0.1403
     11 H           1.3351    1.0999   -0.8873 H       1  LIG1        0.1072
     12 C          -0.8812    1.7946    0.3857 C.ar    1  LIG1        0.0440
     13 C           0.1013    2.5042    1.0312 C.ar    1  LIG1        0.0537
     14 C          -0.0713    3.9316    0.9148 C.ar    1  LIG1        0.0361
     15 C          -1.1837    4.2535    0.1892 C.ar    1  LIG1        0.0421
     16 S          -2.0182    2.8418   -0.3719 S.2     1  LIG1       -0.0848
     17 C           1.1687    1.8980    1.7710 C.1     1  LIG1       -0.0674
     18 C           2.0757    1.4035    2.3839 C.1     1  LIG1       -0.1138
     19 H           2.8766    0.9548    2.9250 H       1  LIG1        0.1232
     20 S           1.0565    5.0199    1.7185 S.3     1  LIG1       -0.1403
     21 H           0.4462    6.1384    1.3123 H       1  LIG1        0.1072
     22 C          -1.6966    5.5889   -0.1371 C.ar    1  LIG1        0.0440
     23 C          -1.0615    6.5670   -0.8608 C.ar    1  LIG1        0.0537
     24 C          -1.8589    7.7600   -1.0092 C.ar    1  LIG1        0.0361
     25 C          -3.0745    7.6406   -0.3953 C.ar    1  LIG1        0.0421
     26 S          -3.2546    6.1006    0.3815 S.2     1  LIG1       -0.0848
     27 C           0.2407    6.4116   -1.4396 C.1     1  LIG1       -0.0674
     28 C           1.3361    6.3015   -1.9208 C.1     1  LIG1       -0.1138
     29 H           2.3091    6.1990   -2.3431 H       1  LIG1        0.1232
     30 S          -1.2435    9.0992   -1.9753 S.3     1  LIG1       -0.1403
     31 H          -2.2752    9.9147   -1.7273 H       1  LIG1        0.1072
     32 C          -4.1722    8.6136   -0.3585 C.ar    1  LIG1        0.0434
     33 C          -4.1484    9.8865    0.1547 C.ar    1  LIG1        0.0531
     34 C          -5.4145   10.5636    0.0108 C.ar    1  LIG1        0.0278
     35 C          -6.3483    9.7772   -0.5857 C.ar    1  LIG1       -0.0093
     36 S          -5.7224    8.2284   -1.0034 S.2     1  LIG1       -0.0937
     37 H          -7.3742   10.0226   -0.8088 H       1  LIG1        0.0705
     38 C          -3.0026   10.4798    0.7808 C.1     1  LIG1       -0.0674
     39 C          -2.0488   10.9998    1.2952 C.1     1  LIG1       -0.1138
     40 H          -1.1988   11.4530    1.7521 H       1  LIG1        0.1232
     41 S          -5.6045   12.2248    0.5921 S.3     1  LIG1       -0.1409
     42 H          -6.8875   12.3247    0.2328 H       1  LIG1        0.1072
@<TRIPOS>BOND
     1    29    28    1
     2    30    31    1
     3    30    24    1
     4    28    27    3
     5     9     8    1
     6    27    23    1
     7     8     7    3
     8    10    11    1
     9    10     3    1
    10    24    23   ar
    11    24    25   ar
    12    36    35   ar
    13    36    32   ar
    14    23    22   ar
    15    37    35    1
    16     7     2    1
    17    35    34   ar
    18    25    32    1
    19    25    26   ar
    20    16    15   ar
    21    16    12   ar
    22    32    33   ar
    23     3     2   ar
    24     3     4   ar
    25     2     1   ar
    26    22    15    1
    27    22    26   ar
    28    34    33   ar
    29    34    41    1
    30    33    38    1
    31    15    14   ar
    32    42    41    1
    33     4    12    1
    34     4     5   ar
    35    12    13   ar
    36     1     6    1
    37     1     5   ar
    38    38    39    3
    39    14    13   ar
    40    14    20    1
    41    13    17    1
    42    39    40    1
    43    21    20    1
    44    17    18    3
    45    18    19    1
