@<TRIPOS>MOLECULE
mol_data/opt/m06hf/geoms/mol2/5eg5eg5eg5eg.out
 42 45 0 0 0
SMALL
GASTEIGER

@<TRIPOS>ATOM
      1 C          -1.8173   -1.9884    0.4224 C.ar    1  LIG1       -0.0072
      2 C          -0.6127   -1.9094   -0.2128 C.ar    1  LIG1        0.0454
      3 C          -0.1274   -0.5517   -0.3099 C.ar    1  LIG1        0.0355
      4 C          -0.9873    0.3380    0.2692 C.ar    1  LIG1        0.0415
      5 S          -2.3855   -0.4562    0.9251 S.2     1  LIG1       -0.0937
      6 H          -2.3841   -2.8844    0.6165 H       1  LIG1        0.0706
      7 C           0.0994   -3.0379   -0.7437 C.1     1  LIG1       -0.0680
      8 C           0.7155   -3.9647   -1.1959 C.1     1  LIG1       -0.1139
      9 H           1.2623   -4.7857   -1.5982 H       1  LIG1        0.1232
     10 S           1.3832   -0.2191   -1.1527 S.3     1  LIG1       -0.1403
     11 H           1.3067    1.1092   -1.0057 H       1  LIG1        0.1072
     12 C          -0.8563    1.7961    0.3597 C.ar    1  LIG1        0.0440
     13 C           0.1503    2.5079    0.9641 C.ar    1  LIG1        0.0537
     14 C          -0.0313    3.9350    0.8566 C.ar    1  LIG1        0.0361
     15 C          -1.1741    4.2542    0.1786 C.ar    1  LIG1        0.0421
     16 S          -2.0271    2.8405   -0.3486 S.2     1  LIG1       -0.0848
     17 C           1.2496    1.9043    1.6578 C.1     1  LIG1       -0.0674
     18 C           2.1831    1.4121    2.2316 C.1     1  LIG1       -0.1138
     19 H           3.0073    0.9653    2.7382 H       1  LIG1        0.1232
     20 S           1.1259    5.0259    1.6135 S.3     1  LIG1       -0.1403
     21 H           0.4952    6.1429    1.2352 H       1  LIG1        0.1072
     22 C          -1.7043    5.5884   -0.1243 C.ar    1  LIG1        0.0440
     23 C          -1.1031    6.5690   -0.8730 C.ar    1  LIG1        0.0537
     24 C          -1.9095    7.7597   -0.9866 C.ar    1  LIG1        0.0361
     25 C          -3.0978    7.6361   -0.3222 C.ar    1  LIG1        0.0421
     26 S          -3.2404    6.0950    0.4600 S.2     1  LIG1       -0.0848
     27 C           0.1742    6.4179   -1.5063 C.1     1  LIG1       -0.0674
     28 C           1.2486    6.3116   -2.0333 C.1     1  LIG1       -0.1138
     29 H           2.2033    6.2123   -2.4963 H       1  LIG1        0.1232
     30 S          -1.3392    9.1015   -1.9766 S.3     1  LIG1       -0.1403
     31 H          -2.3622    9.9136   -1.6848 H       1  LIG1        0.1072
     32 C          -4.1959    8.6059   -0.2383 C.ar    1  LIG1        0.0434
     33 C          -4.1542    9.8783    0.2746 C.ar    1  LIG1        0.0531
     34 C          -5.4272   10.5519    0.1848 C.ar    1  LIG1        0.0278
     35 C          -6.3830    9.7632   -0.3726 C.ar    1  LIG1       -0.0093
     36 S          -5.7707    8.2166   -0.8177 S.2     1  LIG1       -0.0937
     37 H          -7.4180   10.0058   -0.5523 H       1  LIG1        0.0705
     38 C          -2.9848   10.4745    0.8526 C.1     1  LIG1       -0.0674
     39 C          -2.0118   10.9970    1.3271 C.1     1  LIG1       -0.1138
     40 H          -1.1448   11.4524    1.7483 H       1  LIG1        0.1232
     41 S          -5.5975   12.2121    0.7751 S.3     1  LIG1       -0.1409
     42 H          -6.8947   12.3084    0.4701 H       1  LIG1        0.1072
@<TRIPOS>BOND
     1    29    28    1
     2    28    27    3
     3    30    31    1
     4    30    24    1
     5     9     8    1
     6    27    23    1
     7     8     7    3
     8    10    11    1
     9    10     3    1
    10    24    23   ar
    11    24    25   ar
    12    23    22   ar
    13    36    35   ar
    14    36    32   ar
    15     7     2    1
    16    37    35    1
    17    35    34   ar
    18    16    15   ar
    19    16    12   ar
    20    25    32    1
    21    25    26   ar
    22     3     2   ar
    23     3     4   ar
    24    32    33   ar
    25     2     1   ar
    26    22    15    1
    27    22    26   ar
    28    15    14   ar
    29    34    33   ar
    30    34    41    1
    31     4    12    1
    32     4     5   ar
    33    33    38    1
    34    12    13   ar
    35     1     6    1
    36     1     5   ar
    37    42    41    1
    38    38    39    3
    39    14    13   ar
    40    14    20    1
    41    13    17    1
    42    21    20    1
    43    39    40    1
    44    17    18    3
    45    18    19    1
