@<TRIPOS>MOLECULE
mol_data/opt/m06hf/geoms/mol2/5eh.out
 13 13 0 0 0
SMALL
GASTEIGER

@<TRIPOS>ATOM
      1 C          -2.1472   -1.6969    0.0390 C.ar    1  LIG1       -0.0071
      2 C          -0.7842   -1.6801   -0.0006 C.ar    1  LIG1        0.0523
      3 C          -0.2440   -0.3352   -0.0420 C.ar    1  LIG1        0.0472
      4 C          -1.2342    0.5991   -0.0375 C.ar    1  LIG1       -0.0024
      5 S          -2.8037   -0.1183    0.0237 S.2     1  LIG1       -0.1020
      6 H          -2.7802   -2.5682    0.0700 H       1  LIG1        0.0706
      7 H          -1.1235    1.6705   -0.0493 H       1  LIG1        0.0712
      8 C           0.0598   -2.8416   -0.0151 C.1     1  LIG1       -0.0673
      9 C           0.8044   -3.7857   -0.0379 C.1     1  LIG1       -0.1138
     10 H           1.4497   -4.6335   -0.0495 H       1  LIG1        0.1232
     11 N           1.1298   -0.1051   -0.0308 N.pl3   1  LIG1       -0.3566
     12 H           1.6702   -0.8995   -0.3483 H       1  LIG1        0.1424
     13 H           1.4180    0.7583   -0.4681 H       1  LIG1        0.1424
@<TRIPOS>BOND
     1    13    11    1
     2    12    11    1
     3    10     9    1
     4     7     4    1
     5     3     4   ar
     6     3    11    1
     7     3     2   ar
     8     9     8    3
     9     4     5   ar
    10     8     2    1
    11     2     1   ar
    12     5     1   ar
    13     1     6    1
