@<TRIPOS>MOLECULE
mol_data/opt/m06hf/geoms/mol2/5eh5eh5eh-.out
 35 37 0 0 0
SMALL
GASTEIGER

@<TRIPOS>ATOM
      1 C          -1.6541   -1.6817   -1.6075 C.ar    1  LIG1       -0.0065
      2 C          -0.7915   -1.8655   -0.5691 C.ar    1  LIG1        0.0529
      3 C          -0.3286   -0.6172    0.0086 C.ar    1  LIG1        0.0556
      4 C          -0.8667    0.4630   -0.6456 C.ar    1  LIG1        0.0490
      5 S          -1.9274   -0.0270   -1.9370 S.2     1  LIG1       -0.0930
      6 H          -2.1247   -2.4525   -2.1955 H       1  LIG1        0.0706
      7 C          -0.3576   -3.1378   -0.0652 C.1     1  LIG1       -0.0673
      8 C           0.0380   -4.1792    0.3880 C.1     1  LIG1       -0.1138
      9 H           0.3754   -5.1108    0.7796 H       1  LIG1        0.1232
     10 N           0.4764   -0.6040    1.1238 N.pl3   1  LIG1       -0.3561
     11 H           0.8878   -1.4987    1.3505 H       1  LIG1        0.1424
     12 H           1.1050    0.1810    1.2192 H       1  LIG1        0.1424
     13 C          -0.6863    1.8769   -0.3310 C.ar    1  LIG1        0.0455
     14 C           0.4874    2.5426   -0.0807 C.ar    1  LIG1        0.0612
     15 C           0.3055    3.9511    0.2051 C.ar    1  LIG1        0.0563
     16 C          -1.0156    4.3108    0.1280 C.ar    1  LIG1        0.0496
     17 S          -2.0341    2.9456   -0.2405 S.2     1  LIG1       -0.0840
     18 C           1.7919    1.9530   -0.1380 C.1     1  LIG1       -0.0666
     19 C           2.9020    1.4864   -0.1651 C.1     1  LIG1       -0.1138
     20 H           3.8814    1.0690   -0.2134 H       1  LIG1        0.1232
     21 N           1.3679    4.7487    0.5672 N.pl3   1  LIG1       -0.3561
     22 H           2.2744    4.3493    0.3671 H       1  LIG1        0.1424
     23 H           1.2906    5.7288    0.3339 H       1  LIG1        0.1424
     24 C          -1.5962    5.6252    0.3854 C.ar    1  LIG1        0.0449
     25 C          -1.1793    6.8441   -0.0904 C.ar    1  LIG1        0.0606
     26 C          -1.9794    7.9502    0.3917 C.ar    1  LIG1        0.0479
     27 C          -2.9874    7.5236    1.1990 C.ar    1  LIG1       -0.0018
     28 S          -2.9631    5.8109    1.4231 S.2     1  LIG1       -0.0930
     29 H          -3.7375    8.1264    1.6839 H       1  LIG1        0.0712
     30 C          -0.1024    7.0357   -1.0162 C.1     1  LIG1       -0.0667
     31 C           0.8028    7.2267   -1.7873 C.1     1  LIG1       -0.1138
     32 H           1.5931    7.3809   -2.4855 H       1  LIG1        0.1232
     33 N          -1.6685    9.2660    0.0541 N.pl3   1  LIG1       -0.3566
     34 H          -1.1701    9.3481   -0.8230 H       1  LIG1        0.1424
     35 H          -2.4450    9.9093    0.1161 H       1  LIG1        0.1424
@<TRIPOS>BOND
     1    32    31    1
     2     6     1    1
     3     5     1   ar
     4     5     4   ar
     5    31    30    3
     6     1     2   ar
     7    30    25    1
     8    34    33    1
     9     4    13    1
    10     4     3   ar
    11     2     7    1
    12     2     3   ar
    13    13    17   ar
    14    13    14   ar
    15    17    16   ar
    16    20    19    1
    17    19    18    3
    18    18    14    1
    19    25    24   ar
    20    25    26   ar
    21    14    15   ar
    22     7     8    3
    23     3    10    1
    24    33    35    1
    25    33    26    1
    26    16    15   ar
    27    16    24    1
    28    15    21    1
    29    23    21    1
    30    22    21    1
    31    24    28   ar
    32     8     9    1
    33    26    27   ar
    34    10    12    1
    35    10    11    1
    36    27    28   ar
    37    27    29    1
