@<TRIPOS>MOLECULE
mol_data/opt/m06hf/geoms/mol2/5eh5eh5eh5eh.out
 46 49 0 0 0
SMALL
GASTEIGER

@<TRIPOS>ATOM
      1 C          -1.3567   -1.4784   -2.2547 C.ar    1  LIG1       -0.0065
      2 C          -0.8500   -1.7637   -1.0236 C.ar    1  LIG1        0.0529
      3 C          -0.4632   -0.5771   -0.2820 C.ar    1  LIG1        0.0556
      4 C          -0.6875    0.5628   -1.0146 C.ar    1  LIG1        0.0490
      5 S          -1.3721    0.2004   -2.5779 S.2     1  LIG1       -0.0930
      6 H          -1.7045   -2.1895   -2.9860 H       1  LIG1        0.0706
      7 C          -0.6984   -3.0811   -0.4745 C.1     1  LIG1       -0.0673
      8 C          -0.5521   -4.1668    0.0217 C.1     1  LIG1       -0.1138
      9 H          -0.4342   -5.1372    0.4453 H       1  LIG1        0.1232
     10 N          -0.0255   -0.6658    1.0176 N.pl3   1  LIG1       -0.3561
     11 H           0.2117   -1.6019    1.3152 H       1  LIG1        0.1424
     12 H           0.6094    0.0513    1.3370 H       1  LIG1        0.1424
     13 C          -0.5003    1.9468   -0.5935 C.ar    1  LIG1        0.0455
     14 C           0.5807    2.4997    0.0472 C.ar    1  LIG1        0.0612
     15 C           0.4220    3.9098    0.3416 C.ar    1  LIG1        0.0563
     16 C          -0.7758    4.3871   -0.1281 C.ar    1  LIG1        0.0496
     17 S          -1.7230    3.1278   -0.8733 S.2     1  LIG1       -0.0840
     18 C           1.7896    1.8011    0.3668 C.1     1  LIG1       -0.0666
     19 C           2.8132    1.2377    0.6601 C.1     1  LIG1       -0.1138
     20 H           3.7222    0.7321    0.8923 H       1  LIG1        0.1232
     21 N           1.3680    4.5931    1.0685 N.pl3   1  LIG1       -0.3561
     22 H           2.2544    4.1163    1.1585 H       1  LIG1        0.1424
     23 H           1.4419    5.5852    0.8971 H       1  LIG1        0.1424
     24 C          -1.3176    5.7347    0.0077 C.ar    1  LIG1        0.0455
     25 C          -0.6862    6.9315   -0.2241 C.ar    1  LIG1        0.0612
     26 C          -1.5236    8.0875    0.0255 C.ar    1  LIG1        0.0563
     27 C          -2.7880    7.7174    0.4076 C.ar    1  LIG1        0.0496
     28 S          -2.9472    5.9838    0.5114 S.2     1  LIG1       -0.0840
     29 C           0.6512    7.0696   -0.7182 C.1     1  LIG1       -0.0666
     30 C           1.7756    7.2185   -1.1238 C.1     1  LIG1       -0.1138
     31 H           2.7632    7.3349   -1.5068 H       1  LIG1        0.1232
     32 N          -1.0170    9.3644   -0.0636 N.pl3   1  LIG1       -0.3561
     33 H          -0.1367    9.4297   -0.5555 H       1  LIG1        0.1424
     34 H          -1.6764   10.0920   -0.3012 H       1  LIG1        0.1424
     35 C          -3.9036    8.5847    0.7730 C.ar    1  LIG1        0.0449
     36 C          -4.3681    9.6964    0.1136 C.ar    1  LIG1        0.0606
     37 C          -5.4985   10.3192    0.7696 C.ar    1  LIG1        0.0479
     38 C          -5.8628    9.6393    1.8899 C.ar    1  LIG1       -0.0018
     39 S          -4.8367    8.2837    2.1915 S.2     1  LIG1       -0.0930
     40 H          -6.6709    9.8717    2.5632 H       1  LIG1        0.0712
     41 C          -3.8573   10.1835   -1.1333 C.1     1  LIG1       -0.0667
     42 C          -3.4429   10.6211   -2.1761 C.1     1  LIG1       -0.1138
     43 H          -3.0804   10.9870   -3.1090 H       1  LIG1        0.1232
     44 N          -6.0667   11.4903    0.2731 N.pl3   1  LIG1       -0.3566
     45 H          -5.9097   11.6246   -0.7178 H       1  LIG1        0.1424
     46 H          -7.0324   11.6318    0.5331 H       1  LIG1        0.1424
@<TRIPOS>BOND
     1    43    42    1
     2     6     1    1
     3     5     1   ar
     4     5     4   ar
     5     1     2   ar
     6    42    41    3
     7    31    30    1
     8    41    36    1
     9    30    29    3
    10     2     7    1
    11     2     3   ar
    12     4    13    1
    13     4     3   ar
    14    17    13   ar
    15    17    16   ar
    16    29    25    1
    17    45    44    1
    18    13    14   ar
    19    33    32    1
    20     7     8    3
    21    34    32    1
    22     3    10    1
    23    25    24   ar
    24    25    26   ar
    25    16    24    1
    26    16    15   ar
    27    32    26    1
    28    24    28   ar
    29     8     9    1
    30    26    27   ar
    31    14    15   ar
    32    14    18    1
    33    36    37   ar
    34    36    35   ar
    35    44    46    1
    36    44    37    1
    37    15    21    1
    38    18    19    3
    39    27    28   ar
    40    27    35    1
    41    19    20    1
    42    37    38   ar
    43    35    39   ar
    44    23    21    1
    45    10    11    1
    46    10    12    1
    47    21    22    1
    48    38    39   ar
    49    38    40    1
