@<TRIPOS>MOLECULE
mol_data/opt/m06hf/geoms/mol2/5eh5eh-5eh-5eh.out
 46 49 0 0 0
SMALL
GASTEIGER

@<TRIPOS>ATOM
      1 C          -1.3513   -1.4684   -2.2685 C.ar    1  LIG1       -0.0065
      2 C          -0.8467   -1.7591   -1.0378 C.ar    1  LIG1        0.0529
      3 C          -0.4615   -0.5757   -0.2901 C.ar    1  LIG1        0.0556
      4 C          -0.6848    0.5674   -1.0181 C.ar    1  LIG1        0.0490
      5 S          -1.3666    0.2119   -2.5841 S.2     1  LIG1       -0.0930
      6 H          -1.6977   -2.1762   -3.0036 H       1  LIG1        0.0706
      7 C          -0.6955   -3.0789   -0.4944 C.1     1  LIG1       -0.0673
      8 C          -0.5498   -4.1669   -0.0029 C.1     1  LIG1       -0.1138
      9 H          -0.4323   -5.1391    0.4165 H       1  LIG1        0.1232
     10 N          -0.0259   -0.6702    1.0097 N.pl3   1  LIG1       -0.3561
     11 H           0.2111   -1.6076    1.3035 H       1  LIG1        0.1424
     12 H           0.6082    0.0457    1.3334 H       1  LIG1        0.1424
     13 C          -0.4988    1.9496   -0.5904 C.ar    1  LIG1        0.0455
     14 C           0.5809    2.4998    0.0547 C.ar    1  LIG1        0.0612
     15 C           0.4213    3.9085    0.3552 C.ar    1  LIG1        0.0563
     16 C          -0.7758    4.3876   -0.1143 C.ar    1  LIG1        0.0496
     17 S          -1.7213    3.1315   -0.8669 S.2     1  LIG1       -0.0840
     18 C           1.7895    1.8001    0.3732 C.1     1  LIG1       -0.0666
     19 C           2.8128    1.2357    0.6657 C.1     1  LIG1       -0.1138
     20 H           3.7216    0.7293    0.8971 H       1  LIG1        0.1232
     21 N           1.3659    4.5889    1.0868 N.pl3   1  LIG1       -0.3561
     22 H           2.2523    4.1119    1.1761 H       1  LIG1        0.1424
     23 H           1.4398    5.5817    0.9200 H       1  LIG1        0.1424
     24 C          -1.3182    5.7344    0.0266 C.ar    1  LIG1        0.0455
     25 C          -0.6868    6.9324   -0.1987 C.ar    1  LIG1        0.0612
     26 C          -1.5249    8.0870    0.0547 C.ar    1  LIG1        0.0563
     27 C          -2.7899    7.7149    0.4330 C.ar    1  LIG1        0.0496
     28 S          -2.9487    5.9808    0.5286 S.2     1  LIG1       -0.0840
     29 C           0.6515    7.0732   -0.6899 C.1     1  LIG1       -0.0666
     30 C           1.7765    7.2242   -1.0929 C.1     1  LIG1       -0.1138
     31 H           2.7647    7.3426   -1.4737 H       1  LIG1        0.1232
     32 N          -1.0185    9.3646   -0.0278 N.pl3   1  LIG1       -0.3561
     33 H          -0.1374    9.4323   -0.5179 H       1  LIG1        0.1424
     34 H          -1.6777   10.0929   -0.2632 H       1  LIG1        0.1424
     35 C          -3.9064    8.5802    0.8003 C.ar    1  LIG1        0.0449
     36 C          -4.3701    9.6947    0.1452 C.ar    1  LIG1        0.0606
     37 C          -5.5018   10.3142    0.8021 C.ar    1  LIG1        0.0479
     38 C          -5.8678    9.6291    1.9187 C.ar    1  LIG1       -0.0018
     39 S          -4.8418    8.2725    2.2159 S.2     1  LIG1       -0.0930
     40 H          -6.6771    9.8583    2.5916 H       1  LIG1        0.0712
     41 C          -3.8572   10.1876   -1.0986 C.1     1  LIG1       -0.0667
     42 C          -3.4412   10.6300   -2.1387 C.1     1  LIG1       -0.1138
     43 H          -3.0773   11.0003   -3.0693 H       1  LIG1        0.1232
     44 N          -6.0695   11.4874    0.3099 N.pl3   1  LIG1       -0.3566
     45 H          -5.9108   11.6262   -0.6800 H       1  LIG1        0.1424
     46 H          -7.0356   11.6274    0.5690 H       1  LIG1        0.1424
@<TRIPOS>BOND
     1    43    42    1
     2     6     1    1
     3     5     1   ar
     4     5     4   ar
     5     1     2   ar
     6    42    41    3
     7    31    30    1
     8    41    36    1
     9    30    29    3
    10     2     7    1
    11     2     3   ar
    12     4    13    1
    13     4     3   ar
    14    17    13   ar
    15    17    16   ar
    16    29    25    1
    17    45    44    1
    18    13    14   ar
    19    33    32    1
    20     7     8    3
    21     3    10    1
    22    34    32    1
    23    25    24   ar
    24    25    26   ar
    25    16    24    1
    26    16    15   ar
    27    32    26    1
    28     8     9    1
    29    24    28   ar
    30    26    27   ar
    31    14    15   ar
    32    14    18    1
    33    36    35   ar
    34    36    37   ar
    35    44    46    1
    36    44    37    1
    37    15    21    1
    38    18    19    3
    39    27    28   ar
    40    27    35    1
    41    19    20    1
    42    35    39   ar
    43    37    38   ar
    44    23    21    1
    45    10    11    1
    46    10    12    1
    47    21    22    1
    48    38    39   ar
    49    38    40    1
