@<TRIPOS>MOLECULE
mol_data/opt/m06hf/geoms/mol2/5eh5eh-5eh-5eh-.out
 46 49 0 0 0
SMALL
GASTEIGER

@<TRIPOS>ATOM
      1 C          -1.3482   -1.4705   -2.2684 C.ar    1  LIG1       -0.0065
      2 C          -0.8445   -1.7601   -1.0371 C.ar    1  LIG1        0.0529
      3 C          -0.4602   -0.5760   -0.2901 C.ar    1  LIG1        0.0556
      4 C          -0.6832    0.5665   -1.0192 C.ar    1  LIG1        0.0490
      5 S          -1.3636    0.2095   -2.5855 S.2     1  LIG1       -0.0930
      6 H          -1.6938   -2.1790   -3.0032 H       1  LIG1        0.0706
      7 C          -0.6936   -3.0794   -0.4925 C.1     1  LIG1       -0.0673
      8 C          -0.5481   -4.1669    0.0001 C.1     1  LIG1       -0.1138
      9 H          -0.4308   -5.1387    0.4204 H       1  LIG1        0.1232
     10 N          -0.0257   -0.6693    1.0102 N.pl3   1  LIG1       -0.3561
     11 H           0.2112   -1.6063    1.3049 H       1  LIG1        0.1424
     12 H           0.6081    0.0470    1.3338 H       1  LIG1        0.1424
     13 C          -0.4977    1.9491   -0.5925 C.ar    1  LIG1        0.0455
     14 C           0.5814    2.5001    0.0530 C.ar    1  LIG1        0.0612
     15 C           0.4212    3.9090    0.3522 C.ar    1  LIG1        0.0563
     16 C          -0.7756    4.3874   -0.1188 C.ar    1  LIG1        0.0496
     17 S          -1.7202    3.1305   -0.8710 S.2     1  LIG1       -0.0840
     18 C           1.7898    1.8009    0.3731 C.1     1  LIG1       -0.0666
     19 C           2.8129    1.2370    0.6669 C.1     1  LIG1       -0.1138
     20 H           3.7216    0.7309    0.8996 H       1  LIG1        0.1232
     21 N           1.3651    4.5901    1.0839 N.pl3   1  LIG1       -0.3561
     22 H           2.2515    4.1134    1.1744 H       1  LIG1        0.1424
     23 H           1.4389    5.5829    0.9164 H       1  LIG1        0.1424
     24 C          -1.3184    5.7343    0.0206 C.ar    1  LIG1        0.0455
     25 C          -0.6870    6.9322   -0.2052 C.ar    1  LIG1        0.0612
     26 C          -1.5256    8.0869    0.0465 C.ar    1  LIG1        0.0563
     27 C          -2.7908    7.7149    0.4240 C.ar    1  LIG1        0.0496
     28 S          -2.9494    5.9808    0.5210 S.2     1  LIG1       -0.0840
     29 C           0.6516    7.0728   -0.6954 C.1     1  LIG1       -0.0666
     30 C           1.7770    7.2237   -1.0976 C.1     1  LIG1       -0.1138
     31 H           2.7654    7.3420   -1.4777 H       1  LIG1        0.1232
     32 N          -1.0194    9.3644   -0.0366 N.pl3   1  LIG1       -0.3561
     33 H          -0.1378    9.4319   -0.5261 H       1  LIG1        0.1424
     34 H          -1.6785   10.0925   -0.2732 H       1  LIG1        0.1424
     35 C          -3.9078    8.5802    0.7898 C.ar    1  LIG1        0.0449
     36 C          -4.3711    9.6941    0.1333 C.ar    1  LIG1        0.0606
     37 C          -5.5035   10.3139    0.7887 C.ar    1  LIG1        0.0479
     38 C          -5.8703    9.6297    1.9056 C.ar    1  LIG1       -0.0018
     39 S          -4.8443    8.2736    2.2048 S.2     1  LIG1       -0.0930
     40 H          -6.6802    9.8593    2.5776 H       1  LIG1        0.0712
     41 C          -3.8573   10.1861   -1.1105 C.1     1  LIG1       -0.0667
     42 C          -3.4405   10.6277   -2.1506 C.1     1  LIG1       -0.1138
     43 H          -3.0759   10.9973   -3.0813 H       1  LIG1        0.1232
     44 N          -6.0710   11.4866    0.2951 N.pl3   1  LIG1       -0.3566
     45 H          -5.9115   11.6246   -0.6949 H       1  LIG1        0.1424
     46 H          -7.0374   11.6267    0.5532 H       1  LIG1        0.1424
@<TRIPOS>BOND
     1    43    42    1
     2     6     1    1
     3     5     1   ar
     4     5     4   ar
     5     1     2   ar
     6    42    41    3
     7    31    30    1
     8    41    36    1
     9    30    29    3
    10     2     7    1
    11     2     3   ar
    12     4    13    1
    13     4     3   ar
    14    17    13   ar
    15    17    16   ar
    16    29    25    1
    17    45    44    1
    18    13    14   ar
    19    33    32    1
    20     7     8    3
    21     3    10    1
    22    34    32    1
    23    25    24   ar
    24    25    26   ar
    25    16    24    1
    26    16    15   ar
    27    32    26    1
    28     8     9    1
    29    24    28   ar
    30    26    27   ar
    31    14    15   ar
    32    14    18    1
    33    36    37   ar
    34    36    35   ar
    35    44    46    1
    36    44    37    1
    37    15    21    1
    38    18    19    3
    39    27    28   ar
    40    27    35    1
    41    19    20    1
    42    37    38   ar
    43    35    39   ar
    44    23    21    1
    45    10    11    1
    46    10    12    1
    47    21    22    1
    48    38    39   ar
    49    38    40    1
