@<TRIPOS>MOLECULE
mol_data/opt/m06hf/geoms/mol2/5eh5eh-5eh.out
 35 37 0 0 0
SMALL
GASTEIGER

@<TRIPOS>ATOM
      1 C          -1.6814   -1.6818   -1.5875 C.ar    1  LIG1       -0.0065
      2 C          -0.8022   -1.8658   -0.5632 C.ar    1  LIG1        0.0529
      3 C          -0.3293   -0.6175    0.0065 C.ar    1  LIG1        0.0556
      4 C          -0.8775    0.4628   -0.6392 C.ar    1  LIG1        0.0490
      5 S          -1.9592   -0.0271   -1.9130 S.2     1  LIG1       -0.0930
      6 H          -2.1619   -2.4526   -2.1676 H       1  LIG1        0.0706
      7 C          -0.3608   -3.1382   -0.0661 C.1     1  LIG1       -0.0673
      8 C           0.0416   -4.1796    0.3810 C.1     1  LIG1       -0.1138
      9 H           0.3849   -5.1112    0.7674 H       1  LIG1        0.1232
     10 N           0.4937   -0.6044    1.1085 N.pl3   1  LIG1       -0.3561
     11 H           0.9083   -1.4992    1.3288 H       1  LIG1        0.1424
     12 H           1.1242    0.1803    1.1934 H       1  LIG1        0.1424
     13 C          -0.6912    1.8767   -0.3280 C.ar    1  LIG1        0.0455
     14 C           0.4867    2.5418   -0.0970 C.ar    1  LIG1        0.0612
     15 C           0.3102    3.9505    0.1912 C.ar    1  LIG1        0.0563
     16 C          -1.0118    4.3108    0.1356 C.ar    1  LIG1        0.0496
     17 S          -2.0369    2.9461   -0.2159 S.2     1  LIG1       -0.0840
     18 C           1.7898    1.9516   -0.1753 C.1     1  LIG1       -0.0666
     19 C           2.8991    1.4844   -0.2203 C.1     1  LIG1       -0.1138
     20 H           3.8774    1.0664   -0.2843 H       1  LIG1        0.1232
     21 N           1.3787    4.7477    0.5358 N.pl3   1  LIG1       -0.3561
     22 H           2.2817    4.3478    0.3212 H       1  LIG1        0.1424
     23 H           1.2982    5.7277    0.3035 H       1  LIG1        0.1424
     24 C          -1.5875    5.6256    0.4019 C.ar    1  LIG1        0.0449
     25 C          -1.1778    6.8442   -0.0809 C.ar    1  LIG1        0.0606
     26 C          -1.9694    7.9509    0.4138 C.ar    1  LIG1        0.0479
     27 C          -2.9644    7.5250    1.2375 C.ar    1  LIG1       -0.0018
     28 S          -2.9373    5.8123    1.4616 S.2     1  LIG1       -0.0930
     29 H          -3.7062    8.1283    1.7343 H       1  LIG1        0.0712
     30 C          -0.1160    7.0350   -1.0242 C.1     1  LIG1       -0.0667
     31 C           0.7768    7.2253   -1.8099 C.1     1  LIG1       -0.1138
     32 H           1.5557    7.3789   -2.5209 H       1  LIG1        0.1232
     33 N          -1.6634    9.2663    0.0708 N.pl3   1  LIG1       -0.3566
     34 H          -1.1792    9.3480   -0.8144 H       1  LIG1        0.1424
     35 H          -2.4385    9.9101    0.1452 H       1  LIG1        0.1424
@<TRIPOS>BOND
     1    32    31    1
     2     6     1    1
     3     5     1   ar
     4     5     4   ar
     5    31    30    3
     6     1     2   ar
     7    30    25    1
     8    34    33    1
     9     4    13    1
    10     4     3   ar
    11     2     7    1
    12     2     3   ar
    13    13    17   ar
    14    13    14   ar
    15    20    19    1
    16    19    18    3
    17    17    16   ar
    18    18    14    1
    19    14    15   ar
    20    25    24   ar
    21    25    26   ar
    22     7     8    3
    23     3    10    1
    24    33    35    1
    25    33    26    1
    26    16    15   ar
    27    16    24    1
    28    15    21    1
    29    23    21    1
    30    22    21    1
    31     8     9    1
    32    24    28   ar
    33    26    27   ar
    34    10    12    1
    35    10    11    1
    36    27    28   ar
    37    27    29    1
