@<TRIPOS>MOLECULE
mol_data/opt/m06hf/geoms/mol2/5eh5eh5eh.out
 35 37 0 0 0
SMALL
GASTEIGER

@<TRIPOS>ATOM
      1 C          -1.6635   -1.6851   -1.5966 C.ar    1  LIG1       -0.0065
      2 C          -0.7960   -1.8668   -0.5619 C.ar    1  LIG1        0.0529
      3 C          -0.3298   -0.6173    0.0105 C.ar    1  LIG1        0.0556
      4 C          -0.8706    0.4616   -0.6438 C.ar    1  LIG1        0.0490
      5 S          -1.9377   -0.0311   -1.9288 S.2     1  LIG1       -0.0930
      6 H          -2.1372   -2.4572   -2.1805 H       1  LIG1        0.0706
      7 C          -0.3603   -3.1381   -0.0570 C.1     1  LIG1       -0.0673
      8 C           0.0371   -4.1785    0.3968 C.1     1  LIG1       -0.1138
      9 H           0.3760   -5.1093    0.7891 H       1  LIG1        0.1232
     10 N           0.4805   -0.6017    1.1218 N.pl3   1  LIG1       -0.3561
     11 H           0.8927   -1.4961    1.3487 H       1  LIG1        0.1424
     12 H           1.1099    0.1832    1.2122 H       1  LIG1        0.1424
     13 C          -0.6880    1.8762   -0.3334 C.ar    1  LIG1        0.0455
     14 C           0.4871    2.5419   -0.0904 C.ar    1  LIG1        0.0612
     15 C           0.3072    3.9512    0.1928 C.ar    1  LIG1        0.0563
     16 C          -1.0141    4.3112    0.1212 C.ar    1  LIG1        0.0496
     17 S          -2.0350    2.9456   -0.2391 S.2     1  LIG1       -0.0840
     18 C           1.7911    1.9516   -0.1525 C.1     1  LIG1       -0.0666
     19 C           2.9008    1.4844   -0.1838 C.1     1  LIG1       -0.1138
     20 H           3.8798    1.0664   -0.2357 H       1  LIG1        0.1232
     21 N           1.3717    4.7492    0.5479 N.pl3   1  LIG1       -0.3561
     22 H           2.2771    4.3489    0.3444 H       1  LIG1        0.1424
     23 H           1.2937    5.7287    0.3126 H       1  LIG1        0.1424
     24 C          -1.5929    5.6265    0.3781 C.ar    1  LIG1        0.0449
     25 C          -1.1778    6.8441   -0.1026 C.ar    1  LIG1        0.0606
     26 C          -1.9751    7.9518    0.3806 C.ar    1  LIG1        0.0479
     27 C          -2.9794    7.5276    1.1937 C.ar    1  LIG1       -0.0018
     28 S          -2.9548    5.8154    1.4218 S.2     1  LIG1       -0.0930
     29 H          -3.7269    8.1319    1.6807 H       1  LIG1        0.0712
     30 C          -0.1053    7.0330   -1.0341 C.1     1  LIG1       -0.0667
     31 C           0.7964    7.2217   -1.8100 C.1     1  LIG1       -0.1138
     32 H           1.5834    7.3738   -2.5123 H       1  LIG1        0.1232
     33 N          -1.6652    9.2666    0.0383 N.pl3   1  LIG1       -0.3566
     34 H          -1.1710    9.3463   -0.8414 H       1  LIG1        0.1424
     35 H          -2.4412    9.9103    0.1024 H       1  LIG1        0.1424
@<TRIPOS>BOND
     1    32    31    1
     2     6     1    1
     3     5     1   ar
     4     5     4   ar
     5    31    30    3
     6     1     2   ar
     7    30    25    1
     8    34    33    1
     9     4    13    1
    10     4     3   ar
    11     2     7    1
    12     2     3   ar
    13    13    17   ar
    14    13    14   ar
    15    17    16   ar
    16    20    19    1
    17    19    18    3
    18    18    14    1
    19    25    24   ar
    20    25    26   ar
    21    14    15   ar
    22     7     8    3
    23     3    10    1
    24    33    35    1
    25    33    26    1
    26    16    15   ar
    27    16    24    1
    28    15    21    1
    29    23    21    1
    30    22    21    1
    31    24    28   ar
    32    26    27   ar
    33     8     9    1
    34    10    12    1
    35    10    11    1
    36    27    28   ar
    37    27    29    1
