@<TRIPOS>MOLECULE
mol_data/opt/m06hf/geoms/mol2/5eh5eh5eh5eh-.out
 46 49 0 0 0
SMALL
GASTEIGER

@<TRIPOS>ATOM
      1 C          -1.3520   -1.4827   -2.2479 C.ar    1  LIG1       -0.0065
      2 C          -0.8465   -1.7655   -1.0158 C.ar    1  LIG1        0.0529
      3 C          -0.4609   -0.5773   -0.2760 C.ar    1  LIG1        0.0556
      4 C          -0.6849    0.5611   -1.0111 C.ar    1  LIG1        0.0490
      5 S          -1.3677    0.1955   -2.5743 S.2     1  LIG1       -0.0930
      6 H          -1.6989   -2.1953   -2.9782 H       1  LIG1        0.0706
      7 C          -0.6949   -3.0818   -0.4640 C.1     1  LIG1       -0.0673
      8 C          -0.5487   -4.1665    0.0344 C.1     1  LIG1       -0.1138
      9 H          -0.4309   -5.1360    0.4600 H       1  LIG1        0.1232
     10 N          -0.0244   -0.6634    1.0242 N.pl3   1  LIG1       -0.3561
     11 H           0.2128   -1.5988    1.3238 H       1  LIG1        0.1424
     12 H           0.6099    0.0546    1.3428 H       1  LIG1        0.1424
     13 C          -0.4986    1.9460   -0.5924 C.ar    1  LIG1        0.0455
     14 C           0.5815    2.5005    0.0484 C.ar    1  LIG1        0.0612
     15 C           0.4220    3.9111    0.3399 C.ar    1  LIG1        0.0563
     16 C          -0.7756    4.3870   -0.1319 C.ar    1  LIG1        0.0496
     17 S          -1.7214    3.1260   -0.8757 S.2     1  LIG1       -0.0840
     18 C           1.7903    1.8029    0.3705 C.1     1  LIG1       -0.0666
     19 C           2.8139    1.2405    0.6659 C.1     1  LIG1       -0.1138
     20 H           3.7228    0.7357    0.9000 H       1  LIG1        0.1232
     21 N           1.3670    4.5962    1.0664 N.pl3   1  LIG1       -0.3561
     22 H           2.2535    4.1199    1.1582 H       1  LIG1        0.1424
     23 H           1.4407    5.5880    0.8932 H       1  LIG1        0.1424
     24 C          -1.3179    5.7347    0.0008 C.ar    1  LIG1        0.0455
     25 C          -0.6868    6.9313   -0.2327 C.ar    1  LIG1        0.0612
     26 C          -1.5249    8.0874    0.0138 C.ar    1  LIG1        0.0563
     27 C          -2.7895    7.7176    0.3953 C.ar    1  LIG1        0.0496
     28 S          -2.9482    5.9842    0.5022 S.2     1  LIG1       -0.0840
     29 C           0.6511    7.0689   -0.7257 C.1     1  LIG1       -0.0666
     30 C           1.7759    7.2175   -1.1304 C.1     1  LIG1       -0.1138
     31 H           2.7638    7.3335   -1.5127 H       1  LIG1        0.1232
     32 N          -1.0187    9.3644   -0.0773 N.pl3   1  LIG1       -0.3561
     33 H          -0.1378    9.4291   -0.5684 H       1  LIG1        0.1424
     34 H          -1.6781   10.0912   -0.3169 H       1  LIG1        0.1424
     35 C          -3.9059    8.5851    0.7579 C.ar    1  LIG1        0.0449
     36 C          -4.3701    9.6954    0.0959 C.ar    1  LIG1        0.0606
     37 C          -5.5014   10.3190    0.7496 C.ar    1  LIG1        0.0479
     38 C          -5.8666    9.6411    1.8708 C.ar    1  LIG1       -0.0018
     39 S          -4.8403    8.2865    2.1761 S.2     1  LIG1       -0.0930
     40 H          -6.6754    9.8745    2.5428 H       1  LIG1        0.0712
     41 C          -3.8582   10.1803   -1.1514 C.1     1  LIG1       -0.0667
     42 C          -3.4429   10.6160   -2.1946 C.1     1  LIG1       -0.1138
     43 H          -3.0797   10.9803   -3.1279 H       1  LIG1        0.1232
     44 N          -6.0696   11.4890    0.2503 N.pl3   1  LIG1       -0.3566
     45 H          -5.9115   11.6214   -0.7407 H       1  LIG1        0.1424
     46 H          -7.0355   11.6306    0.5091 H       1  LIG1        0.1424
@<TRIPOS>BOND
     1    43    42    1
     2     6     1    1
     3     5     1   ar
     4     5     4   ar
     5     1     2   ar
     6    42    41    3
     7    31    30    1
     8    41    36    1
     9    30    29    3
    10     2     7    1
    11     2     3   ar
    12     4    13    1
    13     4     3   ar
    14    17    13   ar
    15    17    16   ar
    16    45    44    1
    17    29    25    1
    18    13    14   ar
    19    33    32    1
    20     7     8    3
    21    34    32    1
    22     3    10    1
    23    25    24   ar
    24    25    26   ar
    25    16    24    1
    26    16    15   ar
    27    32    26    1
    28    24    28   ar
    29    26    27   ar
    30     8     9    1
    31    14    15   ar
    32    14    18    1
    33    36    37   ar
    34    36    35   ar
    35    44    46    1
    36    44    37    1
    37    15    21    1
    38    18    19    3
    39    27    28   ar
    40    27    35    1
    41    19    20    1
    42    37    38   ar
    43    35    39   ar
    44    23    21    1
    45    10    11    1
    46    10    12    1
    47    21    22    1
    48    38    39   ar
    49    38    40    1
