@<TRIPOS>MOLECULE
mol_data/opt/m06hf/geoms/mol2/5eh5eh-5eh-.out
 35 37 0 0 0
SMALL
GASTEIGER

@<TRIPOS>ATOM
      1 C          -1.6796   -1.6764   -1.5981 C.ar    1  LIG1       -0.0065
      2 C          -0.8041   -1.8638   -0.5713 C.ar    1  LIG1        0.0529
      3 C          -0.3322   -0.6175    0.0034 C.ar    1  LIG1        0.0556
      4 C          -0.8773    0.4650   -0.6412 C.ar    1  LIG1        0.0490
      5 S          -1.9550   -0.0206   -1.9201 S.2     1  LIG1       -0.0930
      6 H          -2.1587   -2.4452   -2.1820 H       1  LIG1        0.0706
      7 C          -0.3654   -3.1379   -0.0761 C.1     1  LIG1       -0.0673
      8 C           0.0348   -4.1808    0.3694 C.1     1  LIG1       -0.1138
      9 H           0.3761   -5.1138    0.7544 H       1  LIG1        0.1232
     10 N           0.4870   -0.6080    1.1082 N.pl3   1  LIG1       -0.3561
     11 H           0.9001   -1.5038    1.3276 H       1  LIG1        0.1424
     12 H           1.1177    0.1760    1.1975 H       1  LIG1        0.1424
     13 C          -0.6912    1.8779   -0.3255 C.ar    1  LIG1        0.0455
     14 C           0.4864    2.5415   -0.0885 C.ar    1  LIG1        0.0612
     15 C           0.3100    3.9495    0.2029 C.ar    1  LIG1        0.0563
     16 C          -1.0116    4.3110    0.1437 C.ar    1  LIG1        0.0496
     17 S          -2.0364    2.9480   -0.2152 S.2     1  LIG1       -0.0840
     18 C           1.7894    1.9505   -0.1639 C.1     1  LIG1       -0.0666
     19 C           2.8985    1.4827   -0.2064 C.1     1  LIG1       -0.1138
     20 H           3.8767    1.0642   -0.2683 H       1  LIG1        0.1232
     21 N           1.3779    4.7450    0.5534 N.pl3   1  LIG1       -0.3561
     22 H           2.2813    4.3449    0.3409 H       1  LIG1        0.1424
     23 H           1.2989    5.7257    0.3235 H       1  LIG1        0.1424
     24 C          -1.5872    5.6254    0.4116 C.ar    1  LIG1        0.0449
     25 C          -1.1749    6.8451   -0.0664 C.ar    1  LIG1        0.0606
     26 C          -1.9675    7.9510    0.4287 C.ar    1  LIG1        0.0479
     27 C          -2.9656    7.5236    1.2478 C.ar    1  LIG1       -0.0018
     28 S          -2.9406    5.8102    1.4672 S.2     1  LIG1       -0.0930
     29 H          -3.7086    8.1260    1.7437 H       1  LIG1        0.0712
     30 C          -0.1097    7.0377   -1.0054 C.1     1  LIG1       -0.0667
     31 C           0.7859    7.2295   -1.7875 C.1     1  LIG1       -0.1138
     32 H           1.5675    7.3844   -2.4953 H       1  LIG1        0.1232
     33 N          -1.6592    9.2672    0.0904 N.pl3   1  LIG1       -0.3566
     34 H          -1.1720    9.3509   -0.7928 H       1  LIG1        0.1424
     35 H          -2.4341    9.9112    0.1639 H       1  LIG1        0.1424
@<TRIPOS>BOND
     1    32    31    1
     2     6     1    1
     3     5     1   ar
     4     5     4   ar
     5    31    30    3
     6     1     2   ar
     7    30    25    1
     8    34    33    1
     9     4    13    1
    10     4     3   ar
    11     2     7    1
    12     2     3   ar
    13    13    17   ar
    14    13    14   ar
    15    20    19    1
    16    17    16   ar
    17    19    18    3
    18    18    14    1
    19    14    15   ar
    20     7     8    3
    21    25    24   ar
    22    25    26   ar
    23     3    10    1
    24    33    35    1
    25    33    26    1
    26    16    15   ar
    27    16    24    1
    28    15    21    1
    29    23    21    1
    30    22    21    1
    31     8     9    1
    32    24    28   ar
    33    26    27   ar
    34    10    12    1
    35    10    11    1
    36    27    28   ar
    37    27    29    1
