@<TRIPOS>MOLECULE
mol_data/opt/m06hf/geoms/mol2/5eh5eh-5eh5eh-.out
 46 49 0 0 0
SMALL
GASTEIGER

@<TRIPOS>ATOM
      1 C          -1.3642   -1.4747   -2.2536 C.ar    1  LIG1       -0.0065
      2 C          -0.8501   -1.7618   -1.0260 C.ar    1  LIG1        0.0529
      3 C          -0.4600   -0.5761   -0.2845 C.ar    1  LIG1        0.0556
      4 C          -0.6895    0.5649   -1.0138 C.ar    1  LIG1        0.0490
      5 S          -1.3829    0.2047   -2.5737 S.2     1  LIG1       -0.0930
      6 H          -1.7158   -2.1847   -2.9841 H       1  LIG1        0.0706
      7 C          -0.6942   -3.0800   -0.4801 C.1     1  LIG1       -0.0673
      8 C          -0.5441   -4.1665    0.0133 C.1     1  LIG1       -0.1138
      9 H          -0.4229   -5.1375    0.4345 H       1  LIG1        0.1232
     10 N          -0.0146   -0.6668    1.0123 N.pl3   1  LIG1       -0.3561
     11 H           0.2251   -1.6032    1.3068 H       1  LIG1        0.1424
     12 H           0.6216    0.0503    1.3293 H       1  LIG1        0.1424
     13 C          -0.5010    1.9483   -0.5913 C.ar    1  LIG1        0.0455
     14 C           0.5832    2.5009    0.0441 C.ar    1  LIG1        0.0612
     15 C           0.4250    3.9104    0.3419 C.ar    1  LIG1        0.0563
     16 C          -0.7759    4.3875   -0.1199 C.ar    1  LIG1        0.0496
     17 S          -1.7263    3.1288   -0.8619 S.2     1  LIG1       -0.0840
     18 C           1.7945    1.8028    0.3554 C.1     1  LIG1       -0.0666
     19 C           2.8203    1.2398    0.6417 C.1     1  LIG1       -0.1138
     20 H           3.7311    0.7346    0.8676 H       1  LIG1        0.1232
     21 N           1.3747    4.5933    1.0644 N.pl3   1  LIG1       -0.3561
     22 H           2.2620    4.1171    1.1484 H       1  LIG1        0.1424
     23 H           1.4467    5.5857    0.8944 H       1  LIG1        0.1424
     24 C          -1.3180    5.7344    0.0214 C.ar    1  LIG1        0.0455
     25 C          -0.6890    6.9322   -0.2120 C.ar    1  LIG1        0.0612
     26 C          -1.5259    8.0870    0.0446 C.ar    1  LIG1        0.0563
     27 C          -2.7877    7.7152    0.4334 C.ar    1  LIG1        0.0496
     28 S          -2.9448    5.9813    0.5350 S.2     1  LIG1       -0.0840
     29 C           0.6454    7.0723   -0.7136 C.1     1  LIG1       -0.0666
     30 C           1.7673    7.2229   -1.1255 C.1     1  LIG1       -0.1138
     31 H           2.7525    7.3408   -1.5140 H       1  LIG1        0.1232
     32 N          -1.0209    9.3646   -0.0452 N.pl3   1  LIG1       -0.3561
     33 H          -0.1435    9.4314   -0.5421 H       1  LIG1        0.1424
     34 H          -1.6822   10.0919   -0.2777 H       1  LIG1        0.1424
     35 C          -3.9020    8.5808    0.8069 C.ar    1  LIG1        0.0449
     36 C          -4.3712    9.6933    0.1522 C.ar    1  LIG1        0.0606
     37 C          -5.4983   10.3140    0.8159 C.ar    1  LIG1        0.0479
     38 C          -5.8554    9.6318    1.9371 C.ar    1  LIG1       -0.0018
     39 S          -4.8264    8.2766    2.2303 S.2     1  LIG1       -0.0930
     40 H          -6.6597    9.8623    2.6155 H       1  LIG1        0.0712
     41 C          -3.8681   10.1831   -1.0969 C.1     1  LIG1       -0.0667
     42 C          -3.4602   10.6228   -2.1412 C.1     1  LIG1       -0.1138
     43 H          -3.1036   10.9907   -3.0757 H       1  LIG1        0.1232
     44 N          -6.0704   11.4855    0.3248 N.pl3   1  LIG1       -0.3566
     45 H          -5.9192   11.6216   -0.6667 H       1  LIG1        0.1424
     46 H          -7.0346   11.6257    0.5908 H       1  LIG1        0.1424
@<TRIPOS>BOND
     1    43    42    1
     2     6     1    1
     3     5     1   ar
     4     5     4   ar
     5     1     2   ar
     6    42    41    3
     7    31    30    1
     8    30    29    3
     9    41    36    1
    10     2     7    1
    11     2     3   ar
    12     4    13    1
    13     4     3   ar
    14    17    13   ar
    15    17    16   ar
    16    29    25    1
    17    45    44    1
    18    13    14   ar
    19    33    32    1
    20     7     8    3
    21     3    10    1
    22    34    32    1
    23    25    24   ar
    24    25    26   ar
    25    16    24    1
    26    16    15   ar
    27    32    26    1
    28     8     9    1
    29    24    28   ar
    30    14    15   ar
    31    14    18    1
    32    26    27   ar
    33    36    35   ar
    34    36    37   ar
    35    44    46    1
    36    44    37    1
    37    15    21    1
    38    18    19    3
    39    27    28   ar
    40    27    35    1
    41    19    20    1
    42    35    39   ar
    43    37    38   ar
    44    23    21    1
    45    10    11    1
    46    10    12    1
    47    21    22    1
    48    38    39   ar
    49    38    40    1
