@<TRIPOS>MOLECULE
mol_data/opt/m06hf/geoms/mol2/5eh5eh.out
 24 25 0 0 0
SMALL
GASTEIGER

@<TRIPOS>ATOM
      1 C          -1.9330   -1.7689    0.8617 C.ar    1  LIG1       -0.0065
      2 C          -0.7501   -1.8398    0.1896 C.ar    1  LIG1        0.0529
      3 C          -0.2398   -0.5349   -0.1873 C.ar    1  LIG1        0.0556
      4 C          -1.0765    0.4706    0.2262 C.ar    1  LIG1        0.0489
      5 S          -2.4613   -0.1564    1.0775 S.2     1  LIG1       -0.0930
      6 H          -2.5037   -2.5991    1.2446 H       1  LIG1        0.0706
      7 C          -0.0595   -3.0510   -0.1532 C.1     1  LIG1       -0.0673
      8 C           0.5448   -4.0410   -0.4716 C.1     1  LIG1       -0.1138
      9 H           1.0719   -4.9272   -0.7411 H       1  LIG1        0.1232
     10 N           0.9470   -0.4113   -0.8672 N.pl3   1  LIG1       -0.3561
     11 H           1.2084   -1.2043   -1.4349 H       1  LIG1        0.1424
     12 H           1.1643    0.4976   -1.2473 H       1  LIG1        0.1424
     13 C          -0.9346    1.9020   -0.0229 C.ar    1  LIG1        0.0449
     14 C           0.1862    2.6810    0.1294 C.ar    1  LIG1        0.0606
     15 C          -0.0264    4.0635   -0.2499 C.ar    1  LIG1        0.0479
     16 C          -1.3028    4.2789   -0.6676 C.ar    1  LIG1       -0.0018
     17 S          -2.2526    2.8360   -0.6298 S.2     1  LIG1       -0.0930
     18 H          -1.7424    5.2140   -0.9711 H       1  LIG1        0.0712
     19 C           1.4407    2.2280    0.6538 C.1     1  LIG1       -0.0667
     20 C           2.5124    1.8745    1.0701 C.1     1  LIG1       -0.1138
     21 H           3.4452    1.5377    1.4589 H       1  LIG1        0.1232
     22 N           0.9817    5.0117   -0.1041 N.pl3   1  LIG1       -0.3566
     23 H           1.9105    4.6130   -0.0654 H       1  LIG1        0.1424
     24 H           0.9174    5.8043   -0.7259 H       1  LIG1        0.1424
@<TRIPOS>BOND
     1    11    10    1
     2    12    10    1
     3    18    16    1
     4    10     3    1
     5     9     8    1
     6    24    22    1
     7    16    17   ar
     8    16    15   ar
     9    17    13   ar
    10     8     7    3
    11    15    22    1
    12    15    14   ar
    13     3     2   ar
    14     3     4   ar
    15     7     2    1
    16    22    23    1
    17    13    14   ar
    18    13     4    1
    19    14    19    1
    20     2     1   ar
    21     4     5   ar
    22    19    20    3
    23     1     5   ar
    24     1     6    1
    25    20    21    1
