@<TRIPOS>MOLECULE
mol_data/opt/m06hf/geoms/mol2/5eh5eh-.out
 24 25 0 0 0
SMALL
GASTEIGER

@<TRIPOS>ATOM
      1 C          -1.9233   -1.7678    0.8763 C.ar    1  LIG1       -0.0065
      2 C          -0.7474   -1.8397    0.1921 C.ar    1  LIG1        0.0529
      3 C          -0.2409   -0.5355   -0.1918 C.ar    1  LIG1        0.0556
      4 C          -1.0731    0.4707    0.2289 C.ar    1  LIG1        0.0489
      5 S          -2.4490   -0.1549    1.0955 S.2     1  LIG1       -0.0930
      6 H          -2.4901   -2.5974    1.2662 H       1  LIG1        0.0706
      7 C          -0.0608   -3.0517   -0.1560 C.1     1  LIG1       -0.0673
      8 C           0.5397   -4.0426   -0.4789 C.1     1  LIG1       -0.1138
      9 H           1.0634   -4.9296   -0.7524 H       1  LIG1        0.1232
     10 N           0.9394   -0.4129   -0.8839 N.pl3   1  LIG1       -0.3561
     11 H           1.1909   -1.2051   -1.4575 H       1  LIG1        0.1424
     12 H           1.1512    0.4960   -1.2674 H       1  LIG1        0.1424
     13 C          -0.9340    1.9018   -0.0240 C.ar    1  LIG1        0.0449
     14 C           0.1882    2.6811    0.1152 C.ar    1  LIG1        0.0606
     15 C          -0.0284    4.0630   -0.2644 C.ar    1  LIG1        0.0479
     16 C          -1.3092    4.2774   -0.6690 C.ar    1  LIG1       -0.0018
     17 S          -2.2584    2.8346   -0.6188 S.2     1  LIG1       -0.0930
     18 H          -1.7521    5.2120   -0.9696 H       1  LIG1        0.0712
     19 C           1.4482    2.2289    0.6270 C.1     1  LIG1       -0.0667
     20 C           2.5242    1.8764    1.0330 C.1     1  LIG1       -0.1138
     21 H           3.4611    1.5403    1.4125 H       1  LIG1        0.1232
     22 N           0.9810    5.0113   -0.1308 N.pl3   1  LIG1       -0.3566
     23 H           1.9101    4.6127   -0.0996 H       1  LIG1        0.1424
     24 H           0.9108    5.8026   -0.7538 H       1  LIG1        0.1424
@<TRIPOS>BOND
     1    11    10    1
     2    12    10    1
     3    18    16    1
     4    10     3    1
     5    24    22    1
     6     9     8    1
     7    16    17   ar
     8    16    15   ar
     9    17    13   ar
    10     8     7    3
    11    15    22    1
    12    15    14   ar
    13     3     2   ar
    14     3     4   ar
    15     7     2    1
    16    22    23    1
    17    13    14   ar
    18    13     4    1
    19    14    19    1
    20     2     1   ar
    21     4     5   ar
    22    19    20    3
    23     1     5   ar
    24     1     6    1
    25    20    21    1
