@<TRIPOS>MOLECULE
mol_data/opt/m06hf/geoms/mol2/5eh5eh5eh-5eh.out
 46 49 0 0 0
SMALL
GASTEIGER

@<TRIPOS>ATOM
      1 C          -1.3331   -1.4761   -2.2639 C.ar    1  LIG1       -0.0065
      2 C          -0.8372   -1.7623   -1.0286 C.ar    1  LIG1        0.0529
      3 C          -0.4578   -0.5762   -0.2824 C.ar    1  LIG1        0.0556
      4 C          -0.6763    0.5643   -1.0159 C.ar    1  LIG1        0.0490
      5 S          -1.3467    0.2031   -2.5855 S.2     1  LIG1       -0.0930
      6 H          -1.6739   -2.1866   -2.9990 H       1  LIG1        0.0706
      7 C          -0.6895   -3.0802   -0.4795 C.1     1  LIG1       -0.0673
      8 C          -0.5470   -4.1663    0.0168 C.1     1  LIG1       -0.1138
      9 H          -0.4322   -5.1370    0.4405 H       1  LIG1        0.1232
     10 N          -0.0316   -0.6660    1.0209 N.pl3   1  LIG1       -0.3561
     11 H           0.2036   -1.6022    1.3196 H       1  LIG1        0.1424
     12 H           0.6000    0.0513    1.3467 H       1  LIG1        0.1424
     13 C          -0.4938    1.9480   -0.5917 C.ar    1  LIG1        0.0455
     14 C           0.5810    2.5009    0.0592 C.ar    1  LIG1        0.0612
     15 C           0.4188    3.9107    0.3536 C.ar    1  LIG1        0.0563
     16 C          -0.7751    4.3876   -0.1262 C.ar    1  LIG1        0.0496
     17 S          -1.7148    3.1285   -0.8811 S.2     1  LIG1       -0.0840
     18 C           1.7875    1.8028    0.3888 C.1     1  LIG1       -0.0666
     19 C           2.8089    1.2399    0.6906 C.1     1  LIG1       -0.1138
     20 H           3.7161    0.7346    0.9304 H       1  LIG1        0.1232
     21 N           1.3578    4.5939    1.0895 N.pl3   1  LIG1       -0.3561
     22 H           2.2437    4.1176    1.1869 H       1  LIG1        0.1424
     23 H           1.4326    5.5862    0.9199 H       1  LIG1        0.1424
     24 C          -1.3190    5.7347    0.0061 C.ar    1  LIG1        0.0455
     25 C          -0.6864    6.9322   -0.2189 C.ar    1  LIG1        0.0612
     26 C          -1.5267    8.0873    0.0245 C.ar    1  LIG1        0.0563
     27 C          -2.7942    7.7161    0.3949 C.ar    1  LIG1        0.0496
     28 S          -2.9532    5.9823    0.4955 S.2     1  LIG1       -0.0840
     29 C           0.6553    7.0717   -0.7009 C.1     1  LIG1       -0.0666
     30 C           1.7832    7.2217   -1.0963 C.1     1  LIG1       -0.1138
     31 H           2.7740    7.3392   -1.4704 H       1  LIG1        0.1232
     32 N          -1.0202    9.3648   -0.0589 N.pl3   1  LIG1       -0.3561
     33 H          -0.1356    9.4311   -0.5429 H       1  LIG1        0.1424
     34 H          -1.6779   10.0921   -0.3016 H       1  LIG1        0.1424
     35 C          -3.9137    8.5822    0.7512 C.ar    1  LIG1        0.0449
     36 C          -4.3730    9.6943    0.0889 C.ar    1  LIG1        0.0606
     37 C          -5.5096   10.3157    0.7354 C.ar    1  LIG1        0.0479
     38 C          -5.8834    9.6344    1.8518 C.ar    1  LIG1       -0.0018
     39 S          -4.8591    8.2792    2.1611 S.2     1  LIG1       -0.0930
     40 H          -6.6976    9.8656    2.5181 H       1  LIG1        0.0712
     41 C          -3.8514   10.1830   -1.1530 C.1     1  LIG1       -0.0667
     42 C          -3.4281   10.6219   -2.1915 C.1     1  LIG1       -0.1138
     43 H          -3.0576   10.9891   -3.1209 H       1  LIG1        0.1232
     44 N          -6.0742   11.4869    0.2351 N.pl3   1  LIG1       -0.3566
     45 H          -5.9084   11.6223   -0.7542 H       1  LIG1        0.1424
     46 H          -7.0422   11.6275    0.4867 H       1  LIG1        0.1424
@<TRIPOS>BOND
     1    43    42    1
     2     6     1    1
     3     5     1   ar
     4     5     4   ar
     5     1     2   ar
     6    42    41    3
     7    31    30    1
     8    41    36    1
     9    30    29    3
    10     2     7    1
    11     2     3   ar
    12     4    13    1
    13     4     3   ar
    14    17    13   ar
    15    17    16   ar
    16    45    44    1
    17    29    25    1
    18    13    14   ar
    19    33    32    1
    20     7     8    3
    21    34    32    1
    22     3    10    1
    23    25    24   ar
    24    25    26   ar
    25    16    24    1
    26    16    15   ar
    27    32    26    1
    28    24    28   ar
    29     8     9    1
    30    26    27   ar
    31    14    15   ar
    32    14    18    1
    33    36    37   ar
    34    36    35   ar
    35    44    46    1
    36    44    37    1
    37    15    21    1
    38    18    19    3
    39    27    28   ar
    40    27    35    1
    41    19    20    1
    42    37    38   ar
    43    35    39   ar
    44    23    21    1
    45    10    11    1
    46    10    12    1
    47    21    22    1
    48    38    39   ar
    49    38    40    1
