@<TRIPOS>MOLECULE
mol_data/opt/m06hf/geoms/mol2/5eh5eh5eh-5eh-.out
 46 49 0 0 0
SMALL
GASTEIGER

@<TRIPOS>ATOM
      1 C          -1.3323   -1.4799   -2.2587 C.ar    1  LIG1       -0.0065
      2 C          -0.8370   -1.7641   -1.0228 C.ar    1  LIG1        0.0529
      3 C          -0.4578   -0.5768   -0.2783 C.ar    1  LIG1        0.0556
      4 C          -0.6760    0.5625   -1.0138 C.ar    1  LIG1        0.0490
      5 S          -1.3458    0.1987   -2.5831 S.2     1  LIG1       -0.0930
      6 H          -1.6730   -2.1917   -2.9928 H       1  LIG1        0.0706
      7 C          -0.6896   -3.0811   -0.4714 C.1     1  LIG1       -0.0673
      8 C          -0.5473   -4.1664    0.0268 C.1     1  LIG1       -0.1138
      9 H          -0.4327   -5.1364    0.4521 H       1  LIG1        0.1232
     10 N          -0.0321   -0.6644    1.0253 N.pl3   1  LIG1       -0.3561
     11 H           0.2029   -1.6001    1.3256 H       1  LIG1        0.1424
     12 H           0.5994    0.0534    1.3501 H       1  LIG1        0.1424
     13 C          -0.4936    1.9469   -0.5919 C.ar    1  LIG1        0.0455
     14 C           0.5810    2.5009    0.0585 C.ar    1  LIG1        0.0612
     15 C           0.4187    3.9111    0.3505 C.ar    1  LIG1        0.0563
     16 C          -0.7750    4.3873   -0.1306 C.ar    1  LIG1        0.0496
     17 S          -1.7144    3.1270   -0.8837 S.2     1  LIG1       -0.0840
     18 C           1.7873    1.8032    0.3898 C.1     1  LIG1       -0.0666
     19 C           2.8085    1.2408    0.6929 C.1     1  LIG1       -0.1138
     20 H           3.7157    0.7359    0.9339 H       1  LIG1        0.1232
     21 N           1.3575    4.5955    1.0857 N.pl3   1  LIG1       -0.3561
     22 H           2.2433    4.1193    1.1842 H       1  LIG1        0.1424
     23 H           1.4323    5.5875    0.9144 H       1  LIG1        0.1424
     24 C          -1.3189    5.7346   -0.0007 C.ar    1  LIG1        0.0455
     25 C          -0.6862    6.9317   -0.2274 C.ar    1  LIG1        0.0612
     26 C          -1.5265    8.0873    0.0137 C.ar    1  LIG1        0.0563
     27 C          -2.7942    7.7167    0.3843 C.ar    1  LIG1        0.0496
     28 S          -2.9532    5.9831    0.4876 S.2     1  LIG1       -0.0840
     29 C           0.6557    7.0703   -0.7092 C.1     1  LIG1       -0.0666
     30 C           1.7838    7.2197   -1.1044 C.1     1  LIG1       -0.1138
     31 H           2.7748    7.3365   -1.4783 H       1  LIG1        0.1232
     32 N          -1.0199    9.3646   -0.0716 N.pl3   1  LIG1       -0.3561
     33 H          -0.1351    9.4301   -0.5553 H       1  LIG1        0.1424
     34 H          -1.6775   10.0915   -0.3157 H       1  LIG1        0.1424
     35 C          -3.9137    8.5835    0.7387 C.ar    1  LIG1        0.0449
     36 C          -4.3728    9.6944    0.0743 C.ar    1  LIG1        0.0606
     37 C          -5.5096   10.3169    0.7194 C.ar    1  LIG1        0.0479
     38 C          -5.8838    9.6375    1.8368 C.ar    1  LIG1       -0.0018
     39 S          -4.8597    8.2828    2.1487 S.2     1  LIG1       -0.0930
     40 H          -6.6983    9.8698    2.5023 H       1  LIG1        0.0712
     41 C          -3.8507   10.1811   -1.1681 C.1     1  LIG1       -0.0667
     42 C          -3.4269   10.6182   -2.2073 C.1     1  LIG1       -0.1138
     43 H          -3.0561   10.9838   -3.1371 H       1  LIG1        0.1232
     44 N          -6.0739   11.4874    0.2169 N.pl3   1  LIG1       -0.3566
     45 H          -5.9078   11.6211   -0.7725 H       1  LIG1        0.1424
     46 H          -7.0421   11.6284    0.4679 H       1  LIG1        0.1424
@<TRIPOS>BOND
     1    43    42    1
     2     6     1    1
     3     5     1   ar
     4     5     4   ar
     5     1     2   ar
     6    42    41    3
     7    31    30    1
     8    41    36    1
     9    30    29    3
    10     2     7    1
    11     2     3   ar
    12     4    13    1
    13     4     3   ar
    14    17    13   ar
    15    17    16   ar
    16    45    44    1
    17    29    25    1
    18    13    14   ar
    19    33    32    1
    20     7     8    3
    21    34    32    1
    22     3    10    1
    23    25    24   ar
    24    25    26   ar
    25    16    24    1
    26    16    15   ar
    27    32    26    1
    28    24    28   ar
    29    26    27   ar
    30     8     9    1
    31    14    15   ar
    32    14    18    1
    33    36    37   ar
    34    36    35   ar
    35    44    46    1
    36    44    37    1
    37    15    21    1
    38    27    28   ar
    39    27    35    1
    40    18    19    3
    41    19    20    1
    42    37    38   ar
    43    35    39   ar
    44    23    21    1
    45    10    11    1
    46    10    12    1
    47    21    22    1
    48    38    39   ar
    49    38    40    1
