@<TRIPOS>MOLECULE
mol_data/opt/m06hf/geoms/mol2/5eh5eh-5eh5eh.out
 46 49 0 0 0
SMALL
GASTEIGER

@<TRIPOS>ATOM
      1 C          -1.3776   -1.4722   -2.2548 C.ar    1  LIG1       -0.0065
      2 C          -0.8610   -1.7612   -1.0288 C.ar    1  LIG1        0.0529
      3 C          -0.4675   -0.5769   -0.2870 C.ar    1  LIG1        0.0556
      4 C          -0.6973    0.5652   -1.0146 C.ar    1  LIG1        0.0490
      5 S          -1.3949    0.2075   -2.5732 S.2     1  LIG1       -0.0930
      6 H          -1.7318   -2.1811   -2.9853 H       1  LIG1        0.0706
      7 C          -0.7054   -3.0802   -0.4847 C.1     1  LIG1       -0.0673
      8 C          -0.5556   -4.1674    0.0072 C.1     1  LIG1       -0.1138
      9 H          -0.4346   -5.1391    0.4271 H       1  LIG1        0.1232
     10 N          -0.0192   -0.6695    1.0086 N.pl3   1  LIG1       -0.3561
     11 H           0.2200   -1.6065    1.3016 H       1  LIG1        0.1424
     12 H           0.6187    0.0465    1.3248 H       1  LIG1        0.1424
     13 C          -0.5061    1.9480   -0.5911 C.ar    1  LIG1        0.0455
     14 C           0.5804    2.4985    0.0423 C.ar    1  LIG1        0.0612
     15 C           0.4248    3.9079    0.3420 C.ar    1  LIG1        0.0563
     16 C          -0.7766    4.3870   -0.1165 C.ar    1  LIG1        0.0496
     17 S          -1.7304    3.1303   -0.8575 S.2     1  LIG1       -0.0840
     18 C           1.7916    1.7985    0.3499 C.1     1  LIG1       -0.0666
     19 C           2.8173    1.2339    0.6332 C.1     1  LIG1       -0.1138
     20 H           3.7280    0.7272    0.8565 H       1  LIG1        0.1232
     21 N           1.3770    4.5887    1.0629 N.pl3   1  LIG1       -0.3561
     22 H           2.2639    4.1113    1.1443 H       1  LIG1        0.1424
     23 H           1.4500    5.5813    0.8938 H       1  LIG1        0.1424
     24 C          -1.3166    5.7344    0.0276 C.ar    1  LIG1        0.0455
     25 C          -0.6867    6.9316   -0.2061 C.ar    1  LIG1        0.0612
     26 C          -1.5214    8.0872    0.0537 C.ar    1  LIG1        0.0563
     27 C          -2.7828    7.7167    0.4451 C.ar    1  LIG1        0.0496
     28 S          -2.9419    5.9829    0.5452 S.2     1  LIG1       -0.0840
     29 C           0.6467    7.0705   -0.7108 C.1     1  LIG1       -0.0666
     30 C           1.7679    7.2201   -1.1252 C.1     1  LIG1       -0.1138
     31 H           2.7523    7.3371   -1.5160 H       1  LIG1        0.1232
     32 N          -1.0150    9.3643   -0.0360 N.pl3   1  LIG1       -0.3561
     33 H          -0.1387    9.4305   -0.5349 H       1  LIG1        0.1424
     34 H          -1.6759   10.0927   -0.2661 H       1  LIG1        0.1424
     35 C          -3.8950    8.5834    0.8221 C.ar    1  LIG1        0.0449
     36 C          -4.3644    9.6971    0.1697 C.ar    1  LIG1        0.0606
     37 C          -5.4891   10.3186    0.8367 C.ar    1  LIG1        0.0479
     38 C          -5.8444    9.6356    1.9581 C.ar    1  LIG1       -0.0018
     39 S          -4.8165    8.2788    2.2474 S.2     1  LIG1       -0.0930
     40 H          -6.6468    9.8665    2.6386 H       1  LIG1        0.0712
     41 C          -3.8636   10.1876   -1.0800 C.1     1  LIG1       -0.0667
     42 C          -3.4576   10.6279   -2.1249 C.1     1  LIG1       -0.1138
     43 H          -3.1027   10.9963   -3.0598 H       1  LIG1        0.1232
     44 N          -6.0608   11.4913    0.3482 N.pl3   1  LIG1       -0.3566
     45 H          -5.9119   11.6283   -0.6435 H       1  LIG1        0.1424
     46 H          -7.0242   11.6325    0.6166 H       1  LIG1        0.1424
@<TRIPOS>BOND
     1    43    42    1
     2     6     1    1
     3     5     1   ar
     4     5     4   ar
     5     1     2   ar
     6    42    41    3
     7    31    30    1
     8    30    29    3
     9    41    36    1
    10     2     7    1
    11     2     3   ar
    12     4    13    1
    13     4     3   ar
    14    17    13   ar
    15    17    16   ar
    16    29    25    1
    17    45    44    1
    18    13    14   ar
    19    33    32    1
    20     7     8    3
    21     3    10    1
    22    34    32    1
    23    25    24   ar
    24    25    26   ar
    25    16    24    1
    26    16    15   ar
    27    32    26    1
    28     8     9    1
    29    24    28   ar
    30    14    15   ar
    31    14    18    1
    32    26    27   ar
    33    36    35   ar
    34    36    37   ar
    35    15    21    1
    36    44    46    1
    37    44    37    1
    38    18    19    3
    39    27    28   ar
    40    27    35    1
    41    19    20    1
    42    35    39   ar
    43    37    38   ar
    44    23    21    1
    45    10    11    1
    46    10    12    1
    47    21    22    1
    48    38    39   ar
    49    38    40    1
