@<TRIPOS>MOLECULE
mol_data/opt/m06hf/geoms/mol2/5ei.out
 14 14 0 0 0
SMALL
GASTEIGER

@<TRIPOS>ATOM
      1 C          -2.1617   -1.7200   -0.0068 C.ar    1  LIG1       -0.0087
      2 C          -0.7973   -1.6906   -0.0154 C.ar    1  LIG1        0.0346
      3 C          -0.2617   -0.3470    0.0262 C.ar    1  LIG1       -0.0281
      4 C          -1.2583    0.5747    0.0646 C.ar    1  LIG1       -0.0202
      5 S          -2.8258   -0.1421    0.0516 S.2     1  LIG1       -0.1036
      6 H          -2.7930   -2.5930   -0.0319 H       1  LIG1        0.0706
      7 H          -1.1549    1.6476    0.1002 H       1  LIG1        0.0696
      8 C           0.0347   -2.8632   -0.0610 C.1     1  LIG1       -0.0689
      9 C           0.7549   -3.8252   -0.0990 C.1     1  LIG1       -0.1139
     10 H           1.3865   -4.6825   -0.1336 H       1  LIG1        0.1232
     11 C           1.2196   -0.0556    0.0254 C.3     1  LIG1       -0.0380
     12 H           1.3957    1.0183    0.0619 H       1  LIG1        0.0278
     13 H           1.6784   -0.4641   -0.8760 H       1  LIG1        0.0278
     14 H           1.6915   -0.5263    0.8890 H       1  LIG1        0.0278
@<TRIPOS>BOND
     1    13    11    1
     2    10     9    1
     3     9     8    3
     4     8     2    1
     5     6     1    1
     6     2     1   ar
     7     2     3   ar
     8     1     5   ar
     9    11     3    1
    10    11    12    1
    11    11    14    1
    12     3     4   ar
    13     5     4   ar
    14     4     7    1
