@<TRIPOS>MOLECULE
mol_data/opt/m06hf/geoms/mol2/5ei5ei-5ei-5ei.out
 50 53 0 0 0
SMALL
GASTEIGER

@<TRIPOS>ATOM
      1 C          -0.9000   -1.3580   -2.5686 C.ar    1  LIG1       -0.0081
      2 C          -0.6332   -1.6811   -1.2697 C.ar    1  LIG1        0.0352
      3 C          -0.4382   -0.5251   -0.4244 C.ar    1  LIG1       -0.0198
      4 C          -0.5583    0.6312   -1.1403 C.ar    1  LIG1        0.0312
      5 S          -0.9123    0.3349   -2.8147 S.2     1  LIG1       -0.0946
      6 H          -1.0881   -2.0411   -3.3807 H       1  LIG1        0.0706
      7 C          -0.5682   -3.0306   -0.7765 C.1     1  LIG1       -0.0688
      8 C          -0.5134   -4.1505   -0.3438 C.1     1  LIG1       -0.1139
      9 H          -0.4659   -5.1456    0.0329 H       1  LIG1        0.1232
     10 C          -0.1766   -0.6383    1.0561 C.3     1  LIG1       -0.0374
     11 H          -0.2932    0.3312    1.5373 H       1  LIG1        0.0278
     12 H           0.8400   -0.9958    1.2266 H       1  LIG1        0.0278
     13 H          -0.8754   -1.3537    1.4910 H       1  LIG1        0.0278
     14 C          -0.4138    2.0060   -0.6461 C.ar    1  LIG1        0.0424
     15 C           0.6530    2.5390    0.0336 C.ar    1  LIG1        0.0435
     16 C           0.4695    3.9222    0.4013 C.ar    1  LIG1       -0.0191
     17 C          -0.7330    4.3943   -0.0422 C.ar    1  LIG1        0.0318
     18 S          -1.6526    3.1803   -0.8719 S.2     1  LIG1       -0.0856
     19 C           1.8519    1.8080    0.3354 C.1     1  LIG1       -0.0682
     20 C           2.8663    1.2187    0.5983 C.1     1  LIG1       -0.1139
     21 H           3.7649    0.6911    0.8195 H       1  LIG1        0.1232
     22 C           1.4941    4.6944    1.1928 C.3     1  LIG1       -0.0374
     23 H           1.0620    5.6215    1.5662 H       1  LIG1        0.0278
     24 H           2.3492    4.9347    0.5593 H       1  LIG1        0.0278
     25 H           1.8391    4.0848    2.0285 H       1  LIG1        0.0278
     26 C          -1.2706    5.7514    0.1111 C.ar    1  LIG1        0.0424
     27 C          -0.6740    6.9324   -0.2532 C.ar    1  LIG1        0.0435
     28 C          -1.4651    8.0989    0.0576 C.ar    1  LIG1       -0.0191
     29 C          -2.6563    7.7489    0.6269 C.ar    1  LIG1        0.0318
     30 S          -2.8188    6.0331    0.8153 S.2     1  LIG1       -0.0856
     31 C           0.6041    7.0137   -0.9045 C.1     1  LIG1       -0.0682
     32 C           1.6694    7.1129   -1.4534 C.1     1  LIG1       -0.1139
     33 H           2.6092    7.1926   -1.9493 H       1  LIG1        0.1232
     34 C          -0.9799    9.5013   -0.2073 C.3     1  LIG1       -0.0374
     35 H          -1.6073   10.2217    0.3149 H       1  LIG1        0.0278
     36 H          -1.0182    9.7125   -1.2771 H       1  LIG1        0.0278
     37 H           0.0528    9.5948    0.1301 H       1  LIG1        0.0278
     38 C          -3.7355    8.6406    1.0671 C.ar    1  LIG1        0.0418
     39 C          -4.3690    9.6152    0.3376 C.ar    1  LIG1        0.0428
     40 C          -5.3915   10.3126    1.0839 C.ar    1  LIG1       -0.0274
     41 C          -5.4967    9.8242    2.3463 C.ar    1  LIG1       -0.0196
     42 S          -4.3798    8.5509    2.6649 S.2     1  LIG1       -0.0946
     43 H          -6.1787   10.1481    3.1167 H       1  LIG1        0.0696
     44 C          -4.0853    9.8963   -1.0420 C.1     1  LIG1       -0.0682
     45 C          -3.8706   10.1521   -2.1974 C.1     1  LIG1       -0.1139
     46 H          -3.6764   10.3663   -3.2231 H       1  LIG1        0.1232
     47 C          -6.2225   11.4240    0.4897 C.3     1  LIG1       -0.0380
     48 H          -6.9336   11.7988    1.2241 H       1  LIG1        0.0278
     49 H          -6.7657   11.0565   -0.3818 H       1  LIG1        0.0278
     50 H          -5.5758   12.2408    0.1667 H       1  LIG1        0.0278
@<TRIPOS>BOND
     1     6     1    1
     2    46    45    1
     3     5     1   ar
     4     5     4   ar
     5     1     2   ar
     6    45    44    3
     7    33    32    1
     8    32    31    3
     9    36    34    1
    10     2     7    1
    11     2     3   ar
    12     4    14    1
    13     4     3   ar
    14    44    39    1
    15    31    27    1
    16    18    14   ar
    17    18    17   ar
    18     7     8    3
    19    14    15   ar
    20     3    10    1
    21    49    47    1
    22     8     9    1
    23    27    28   ar
    24    27    26   ar
    25    34    28    1
    26    34    37    1
    27    34    35    1
    28    17    26    1
    29    17    16   ar
    30    15    19    1
    31    15    16   ar
    32    28    29   ar
    33    26    30   ar
    34    50    47    1
    35    19    20    3
    36    39    38   ar
    37    39    40   ar
    38    16    22    1
    39    47    40    1
    40    47    48    1
    41    24    22    1
    42    20    21    1
    43    29    30   ar
    44    29    38    1
    45    10    12    1
    46    10    13    1
    47    10    11    1
    48    38    42   ar
    49    40    41   ar
    50    22    23    1
    51    22    25    1
    52    41    42   ar
    53    41    43    1
