@<TRIPOS>MOLECULE
mol_data/opt/m06hf/geoms/mol2/5ei5ei-.out
 26 27 0 0 0
SMALL
GASTEIGER

@<TRIPOS>ATOM
      1 C          -1.8944   -1.7323   -0.9907 C.ar    1  LIG1       -0.0081
      2 C          -0.7276   -1.8344   -0.2910 C.ar    1  LIG1        0.0352
      3 C          -0.2393   -0.5622    0.1910 C.ar    1  LIG1       -0.0198
      4 C          -1.0687    0.4551   -0.1826 C.ar    1  LIG1        0.0312
      5 S          -2.4290   -0.1098   -1.1012 S.2     1  LIG1       -0.0946
      6 H          -2.4534   -2.5366   -1.4395 H       1  LIG1        0.0706
      7 C          -0.0529   -3.0798   -0.0392 C.1     1  LIG1       -0.0688
      8 C           0.5205   -4.1131    0.1816 C.1     1  LIG1       -0.1139
      9 H           1.0210   -5.0336    0.3749 H       1  LIG1        0.1232
     10 C           1.0104   -0.4333    1.0240 C.3     1  LIG1       -0.0374
     11 H           1.0583    0.5532    1.4826 H       1  LIG1        0.0278
     12 H           1.8917   -0.5716    0.3958 H       1  LIG1        0.0278
     13 H           1.0093   -1.2019    1.7975 H       1  LIG1        0.0278
     14 C          -0.9097    1.8875    0.0954 C.ar    1  LIG1        0.0418
     15 C           0.1739    2.6796   -0.1882 C.ar    1  LIG1        0.0428
     16 C           0.0000    4.0537    0.2241 C.ar    1  LIG1       -0.0274
     17 C          -1.2172    4.2438    0.7946 C.ar    1  LIG1       -0.0196
     18 S          -2.1549    2.8004    0.8621 S.2     1  LIG1       -0.0946
     19 H          -1.6176    5.1664    1.1839 H       1  LIG1        0.0696
     20 C           1.3531    2.2135   -0.8633 C.1     1  LIG1       -0.0682
     21 C           2.3513    1.8577   -1.4315 C.1     1  LIG1       -0.1139
     22 H           3.2283    1.5359   -1.9433 H       1  LIG1        0.1232
     23 C           1.0548    5.1124    0.0114 C.3     1  LIG1       -0.0380
     24 H           0.7078    6.0722    0.3906 H       1  LIG1        0.0278
     25 H           1.2788    5.2062   -1.0522 H       1  LIG1        0.0278
     26 H           1.9742    4.8333    0.5276 H       1  LIG1        0.0278
@<TRIPOS>BOND
     1    22    21    1
     2     6     1    1
     3    21    20    3
     4     5     1   ar
     5     5     4   ar
     6    25    23    1
     7     1     2   ar
     8    20    15    1
     9     2     7    1
    10     2     3   ar
    11    15    14   ar
    12    15    16   ar
    13     4    14    1
    14     4     3   ar
    15     7     8    3
    16    23    16    1
    17    23    24    1
    18    23    26    1
    19    14    18   ar
    20     8     9    1
    21     3    10    1
    22    16    17   ar
    23    12    10    1
    24    17    18   ar
    25    17    19    1
    26    10    11    1
    27    10    13    1
