@<TRIPOS>MOLECULE
mol_data/opt/m06hf/geoms/mol2/5ei5ei-5ei5ei-.out
 50 53 0 0 0
SMALL
GASTEIGER

@<TRIPOS>ATOM
      1 C          -0.9333   -1.3742   -2.5365 C.ar    1  LIG1       -0.0081
      2 C          -0.6560   -1.6899   -1.2380 C.ar    1  LIG1        0.0352
      3 C          -0.4517   -0.5293   -0.4013 C.ar    1  LIG1       -0.0198
      4 C          -0.5759    0.6230   -1.1232 C.ar    1  LIG1        0.0312
      5 S          -0.9447    0.3173   -2.7927 S.2     1  LIG1       -0.0946
      6 H          -1.1295   -2.0617   -3.3428 H       1  LIG1        0.0706
      7 C          -0.5892   -3.0366   -0.7373 C.1     1  LIG1       -0.0688
      8 C          -0.5327   -4.1539   -0.2983 C.1     1  LIG1       -0.1139
      9 H          -0.4838   -5.1469    0.0840 H       1  LIG1        0.1232
     10 C          -0.1777   -0.6340    1.0775 C.3     1  LIG1       -0.0374
     11 H          -0.2884    0.3385    1.5539 H       1  LIG1        0.0278
     12 H           0.8397   -0.9923    1.2414 H       1  LIG1        0.0278
     13 H          -0.8740   -1.3455    1.5226 H       1  LIG1        0.0278
     14 C          -0.4247    2.0004   -0.6385 C.ar    1  LIG1        0.0424
     15 C           0.6488    2.5355    0.0288 C.ar    1  LIG1        0.0435
     16 C           0.4709    3.9213    0.3898 C.ar    1  LIG1       -0.0191
     17 C          -0.7344    4.3929   -0.0463 C.ar    1  LIG1        0.0318
     18 S          -1.6633    3.1756   -0.8608 S.2     1  LIG1       -0.0856
     19 C           1.8489    1.8042    0.3248 C.1     1  LIG1       -0.0682
     20 C           2.8645    1.2146    0.5825 C.1     1  LIG1       -0.1139
     21 H           3.7641    0.6867    0.7993 H       1  LIG1        0.1232
     22 C           1.5037    4.6963    1.1678 C.3     1  LIG1       -0.0374
     23 H           1.0764    5.6264    1.5392 H       1  LIG1        0.0278
     24 H           2.3537    4.9312    0.5256 H       1  LIG1        0.0278
     25 H           1.8546    4.0912    2.0042 H       1  LIG1        0.0278
     26 C          -1.2682    5.7519    0.1034 C.ar    1  LIG1        0.0424
     27 C          -0.6727    6.9296   -0.2732 C.ar    1  LIG1        0.0435
     28 C          -1.4590    8.0994    0.0374 C.ar    1  LIG1       -0.0191
     29 C          -2.6459    7.7551    0.6188 C.ar    1  LIG1        0.0318
     30 S          -2.8099    6.0407    0.8191 S.2     1  LIG1       -0.0856
     31 C           0.5999    7.0045   -0.9358 C.1     1  LIG1       -0.0682
     32 C           1.6607    7.0985   -1.4943 C.1     1  LIG1       -0.1139
     33 H           2.5964    7.1735   -1.9987 H       1  LIG1        0.1232
     34 C          -0.9736    9.4992   -0.2402 C.3     1  LIG1       -0.0374
     35 H          -1.5952   10.2240    0.2831 H       1  LIG1        0.0278
     36 H          -1.0208    9.7041   -1.3109 H       1  LIG1        0.0278
     37 H           0.0622    9.5929    0.0877 H       1  LIG1        0.0278
     38 C          -3.7198    8.6514    1.0629 C.ar    1  LIG1        0.0418
     39 C          -4.3577    9.6227    0.3329 C.ar    1  LIG1        0.0428
     40 C          -5.3726   10.3265    1.0837 C.ar    1  LIG1       -0.0274
     41 C          -5.4678    9.8459    2.3499 C.ar    1  LIG1       -0.0196
     42 S          -4.3505    8.5724    2.6666 S.2     1  LIG1       -0.0946
     43 H          -6.1427   10.1757    3.1240 H       1  LIG1        0.0696
     44 C          -4.0853    9.8950   -1.0508 C.1     1  LIG1       -0.0682
     45 C          -3.8800   10.1433   -2.2094 C.1     1  LIG1       -0.1139
     46 H          -3.6942   10.3511   -3.2380 H       1  LIG1        0.1232
     47 C          -6.2066   11.4358    0.4899 C.3     1  LIG1       -0.0380
     48 H          -6.9107   11.8164    1.2281 H       1  LIG1        0.0278
     49 H          -6.7579   11.0641   -0.3747 H       1  LIG1        0.0278
     50 H          -5.5612   12.2494    0.1564 H       1  LIG1        0.0278
@<TRIPOS>BOND
     1     6     1    1
     2    46    45    1
     3     5     1   ar
     4     5     4   ar
     5     1     2   ar
     6    45    44    3
     7    33    32    1
     8    32    31    3
     9    36    34    1
    10     2     7    1
    11     2     3   ar
    12     4    14    1
    13     4     3   ar
    14    44    39    1
    15    31    27    1
    16    18    14   ar
    17    18    17   ar
    18     7     8    3
    19    14    15   ar
    20     3    10    1
    21    49    47    1
    22     8     9    1
    23    27    28   ar
    24    27    26   ar
    25    34    28    1
    26    34    37    1
    27    34    35    1
    28    17    26    1
    29    17    16   ar
    30    15    19    1
    31    15    16   ar
    32    28    29   ar
    33    26    30   ar
    34    50    47    1
    35    19    20    3
    36    39    38   ar
    37    39    40   ar
    38    16    22    1
    39    47    40    1
    40    47    48    1
    41    24    22    1
    42    20    21    1
    43    29    30   ar
    44    29    38    1
    45    38    42   ar
    46    10    12    1
    47    10    13    1
    48    10    11    1
    49    40    41   ar
    50    22    23    1
    51    22    25    1
    52    41    42   ar
    53    41    43    1
