@<TRIPOS>MOLECULE
mol_data/opt/m06hf/geoms/mol2/5ei5ei5ei.out
 38 40 0 0 0
SMALL
GASTEIGER

@<TRIPOS>ATOM
      1 C          -1.4770   -1.5963   -1.7968 C.ar    1  LIG1       -0.0081
      2 C          -0.6980   -1.8216   -0.6992 C.ar    1  LIG1        0.0352
      3 C          -0.3026   -0.6070   -0.0229 C.ar    1  LIG1       -0.0198
      4 C          -0.7998    0.4930   -0.6603 C.ar    1  LIG1        0.0312
      5 S          -1.7433    0.0747   -2.0548 S.2     1  LIG1       -0.0946
      6 H          -1.8979   -2.3371   -2.4566 H       1  LIG1        0.0706
      7 C          -0.3144   -3.1304   -0.2416 C.1     1  LIG1       -0.0688
      8 C           0.0166   -4.2138    0.1608 C.1     1  LIG1       -0.1139
      9 H           0.3070   -5.1767    0.5123 H       1  LIG1        0.1232
     10 C           0.5215   -0.6114    1.2393 C.3     1  LIG1       -0.0374
     11 H           0.4848    0.3651    1.7196 H       1  LIG1        0.0278
     12 H           1.5600   -0.8482    1.0035 H       1  LIG1        0.0278
     13 H           0.1354   -1.3721    1.9186 H       1  LIG1        0.0278
     14 C          -0.6143    1.9018   -0.2932 C.ar    1  LIG1        0.0424
     15 C           0.5699    2.5669   -0.0961 C.ar    1  LIG1        0.0435
     16 C           0.3989    3.9536    0.2654 C.ar    1  LIG1       -0.0191
     17 C          -0.9229    4.2928    0.3065 C.ar    1  LIG1        0.0318
     18 S          -1.9584    2.9520   -0.0598 S.2     1  LIG1       -0.0856
     19 C           1.8630    1.9625   -0.2593 C.1     1  LIG1       -0.0682
     20 C           2.9603    1.4885   -0.3905 C.1     1  LIG1       -0.1139
     21 H           3.9308    1.0670   -0.5165 H       1  LIG1        0.1232
     22 C           1.5622    4.8661    0.5620 C.3     1  LIG1       -0.0374
     23 H           1.2166    5.7605    1.0783 H       1  LIG1        0.0278
     24 H           2.0464    5.1645   -0.3692 H       1  LIG1        0.0278
     25 H           2.2870    4.3374    1.1816 H       1  LIG1        0.0278
     26 C          -1.4970    5.6119    0.5981 C.ar    1  LIG1        0.0418
     27 C          -1.2163    6.7998   -0.0285 C.ar    1  LIG1        0.0428
     28 C          -1.9633    7.9161    0.5041 C.ar    1  LIG1       -0.0274
     29 C          -2.7872    7.5195    1.5076 C.ar    1  LIG1       -0.0196
     30 S          -2.6754    5.8329    1.8373 S.2     1  LIG1       -0.0946
     31 H          -3.4633    8.1369    2.0778 H       1  LIG1        0.0696
     32 C          -0.3062    6.9286   -1.1323 C.1     1  LIG1       -0.0682
     33 C           0.4459    7.0709   -2.0597 C.1     1  LIG1       -0.1139
     34 H           1.1074    7.1872   -2.8869 H       1  LIG1        0.1232
     35 C          -1.8278    9.3204   -0.0322 C.3     1  LIG1       -0.0380
     36 H          -2.4859    9.9978    0.5096 H       1  LIG1        0.0278
     37 H          -2.0865    9.3390   -1.0918 H       1  LIG1        0.0278
     38 H          -0.7972    9.6619    0.0716 H       1  LIG1        0.0278
@<TRIPOS>BOND
     1    34    33    1
     2     6     1    1
     3    33    32    3
     4     5     1   ar
     5     5     4   ar
     6     1     2   ar
     7    32    27    1
     8    37    35    1
     9     2     7    1
    10     2     3   ar
    11     4    14    1
    12     4     3   ar
    13    21    20    1
    14    20    19    3
    15    24    22    1
    16    14    15   ar
    17    14    18   ar
    18    19    15    1
    19     7     8    3
    20    15    16   ar
    21    18    17   ar
    22    35    38    1
    23    35    28    1
    24    35    36    1
    25    27    28   ar
    26    27    26   ar
    27     3    10    1
    28     8     9    1
    29    16    17   ar
    30    16    22    1
    31    17    26    1
    32    28    29   ar
    33    22    23    1
    34    22    25    1
    35    26    30   ar
    36    12    10    1
    37    10    11    1
    38    10    13    1
    39    29    30   ar
    40    29    31    1
