@<TRIPOS>MOLECULE
mol_data/opt/m06hf/geoms/mol2/5ei5ei-5ei.out
 38 40 0 0 0
SMALL
GASTEIGER

@<TRIPOS>ATOM
      1 C          -1.4923   -1.5902   -1.7983 C.ar    1  LIG1       -0.0081
      2 C          -0.7035   -1.8192   -0.7086 C.ar    1  LIG1        0.0352
      3 C          -0.3022   -0.6069   -0.0315 C.ar    1  LIG1       -0.0198
      4 C          -0.8053    0.4952   -0.6606 C.ar    1  LIG1        0.0312
      5 S          -1.7612    0.0817   -2.0480 S.2     1  LIG1       -0.0946
      6 H          -1.9190   -2.3288   -2.4570 H       1  LIG1        0.0706
      7 C          -0.3156   -3.1295   -0.2591 C.1     1  LIG1       -0.0688
      8 C           0.0192   -4.2143    0.1365 C.1     1  LIG1       -0.1139
      9 H           0.3130   -5.1784    0.4819 H       1  LIG1        0.1232
     10 C           0.5331   -0.6156    1.2232 C.3     1  LIG1       -0.0374
     11 H           0.5006    0.3592    1.7072 H       1  LIG1        0.0278
     12 H           1.5695   -0.8514    0.9773 H       1  LIG1        0.0278
     13 H           0.1532   -1.3787    1.9032 H       1  LIG1        0.0278
     14 C          -0.6168    1.9027   -0.2902 C.ar    1  LIG1        0.0424
     15 C           0.5690    2.5674   -0.1015 C.ar    1  LIG1        0.0435
     16 C           0.4011    3.9528    0.2663 C.ar    1  LIG1       -0.0191
     17 C          -0.9203    4.2917    0.3203 C.ar    1  LIG1        0.0318
     18 S          -1.9589    2.9519   -0.0412 S.2     1  LIG1       -0.0856
     19 C           1.8607    1.9637   -0.2784 C.1     1  LIG1       -0.0682
     20 C           2.9569    1.4905   -0.4210 C.1     1  LIG1       -0.1139
     21 H           3.9263    1.0696   -0.5572 H       1  LIG1        0.1232
     22 C           1.5668    4.8645    0.5556 C.3     1  LIG1       -0.0374
     23 H           1.2257    5.7571    1.0780 H       1  LIG1        0.0278
     24 H           2.0427    5.1662   -0.3790 H       1  LIG1        0.0278
     25 H           2.2972    4.3338    1.1668 H       1  LIG1        0.0278
     26 C          -1.4920    5.6097    0.6216 C.ar    1  LIG1        0.0418
     27 C          -1.2171    6.7997   -0.0035 C.ar    1  LIG1        0.0428
     28 C          -1.9595    7.9141    0.5396 C.ar    1  LIG1       -0.0274
     29 C          -2.7743    7.5139    1.5491 C.ar    1  LIG1       -0.0196
     30 S          -2.6594    5.8263    1.8720 S.2     1  LIG1       -0.0946
     31 H          -3.4454    8.1293    2.1273 H       1  LIG1        0.0696
     32 C          -0.3169    6.9325   -1.1149 C.1     1  LIG1       -0.0682
     33 C           0.4268    7.0781   -2.0485 C.1     1  LIG1       -0.1139
     34 H           1.0809    7.1973   -2.8812 H       1  LIG1        0.1232
     35 C          -1.8289    9.3202    0.0069 C.3     1  LIG1       -0.0380
     36 H          -2.4823    9.9956    0.5569 H       1  LIG1        0.0278
     37 H          -2.0972    9.3424   -1.0503 H       1  LIG1        0.0278
     38 H          -0.7975    9.6616    0.1027 H       1  LIG1        0.0278
@<TRIPOS>BOND
     1    34    33    1
     2     6     1    1
     3    33    32    3
     4     5     1   ar
     5     5     4   ar
     6     1     2   ar
     7    32    27    1
     8    37    35    1
     9     2     7    1
    10     2     3   ar
    11     4    14    1
    12     4     3   ar
    13    21    20    1
    14    20    19    3
    15    24    22    1
    16    14    15   ar
    17    14    18   ar
    18    19    15    1
    19     7     8    3
    20    15    16   ar
    21    18    17   ar
    22     3    10    1
    23    27    28   ar
    24    27    26   ar
    25    35    38    1
    26    35    28    1
    27    35    36    1
    28     8     9    1
    29    16    17   ar
    30    16    22    1
    31    17    26    1
    32    28    29   ar
    33    22    23    1
    34    22    25    1
    35    26    30   ar
    36    12    10    1
    37    10    11    1
    38    10    13    1
    39    29    30   ar
    40    29    31    1
