@<TRIPOS>MOLECULE
mol_data/opt/m06hf/geoms/mol2/5ei5ei5ei5ei-.out
 50 53 0 0 0
SMALL
GASTEIGER

@<TRIPOS>ATOM
      1 C          -0.9079   -1.3898   -2.5110 C.ar    1  LIG1       -0.0081
      2 C          -0.6409   -1.6971   -1.2083 C.ar    1  LIG1        0.0352
      3 C          -0.4443   -0.5310   -0.3774 C.ar    1  LIG1       -0.0198
      4 C          -0.5634    0.6166   -1.1075 C.ar    1  LIG1        0.0312
      5 S          -0.9183    0.3000   -2.7780 S.2     1  LIG1       -0.0946
      6 H          -1.0970   -2.0826   -3.3145 H       1  LIG1        0.0706
      7 C          -0.5772   -3.0405   -0.6985 C.1     1  LIG1       -0.0688
      8 C          -0.5235   -4.1550   -0.2520 C.1     1  LIG1       -0.1139
      9 H          -0.4770   -5.1454    0.1369 H       1  LIG1        0.1232
     10 C          -0.1822   -0.6262    1.1042 C.3     1  LIG1       -0.0374
     11 H          -0.2975    0.3493    1.5735 H       1  LIG1        0.0278
     12 H           0.8340   -0.9827    1.2787 H       1  LIG1        0.0278
     13 H          -0.8817   -1.3353    1.5482 H       1  LIG1        0.0278
     14 C          -0.4171    1.9972   -0.6304 C.ar    1  LIG1        0.0424
     15 C           0.6505    2.5373    0.0423 C.ar    1  LIG1        0.0435
     16 C           0.4687    3.9252    0.3930 C.ar    1  LIG1       -0.0191
     17 C          -0.7334    4.3931   -0.0559 C.ar    1  LIG1        0.0318
     18 S          -1.6547    3.1699   -0.8702 S.2     1  LIG1       -0.0856
     19 C           1.8487    1.8088    0.3526 C.1     1  LIG1       -0.0682
     20 C           2.8625    1.2216    0.6223 C.1     1  LIG1       -0.1139
     21 H           3.7607    0.6958    0.8498 H       1  LIG1        0.1232
     22 C           1.4945    4.7059    1.1745 C.3     1  LIG1       -0.0374
     23 H           1.0635    5.6380    1.5366 H       1  LIG1        0.0278
     24 H           2.3495    4.9375    0.5377 H       1  LIG1        0.0278
     25 H           1.8392    4.1063    2.0175 H       1  LIG1        0.0278
     26 C          -1.2694    5.7525    0.0809 C.ar    1  LIG1        0.0424
     27 C          -0.6718    6.9283   -0.2982 C.ar    1  LIG1        0.0435
     28 C          -1.4614    8.0994   -0.0014 C.ar    1  LIG1       -0.0191
     29 C          -2.6528    7.7578    0.5725 C.ar    1  LIG1        0.0318
     30 S          -2.8171    6.0447    0.7822 S.2     1  LIG1       -0.0856
     31 C           0.6061    7.0001   -0.9509 C.1     1  LIG1       -0.0682
     32 C           1.6714    7.0914   -1.5015 C.1     1  LIG1       -0.1139
     33 H           2.6110    7.1640   -1.9987 H       1  LIG1        0.1232
     34 C          -0.9748    9.4979   -0.2839 C.3     1  LIG1       -0.0374
     35 H          -1.6013   10.2254    0.2296 H       1  LIG1        0.0278
     36 H          -1.0132    9.6959   -1.3562 H       1  LIG1        0.0278
     37 H           0.0581    9.5945    0.0520 H       1  LIG1        0.0278
     38 C          -3.7309    8.6561    1.0022 C.ar    1  LIG1        0.0418
     39 C          -4.3636    9.6222    0.2609 C.ar    1  LIG1        0.0428
     40 C          -5.3850   10.3300    0.9990 C.ar    1  LIG1       -0.0274
     41 C          -5.4902    9.8574    2.2674 C.ar    1  LIG1       -0.0196
     42 S          -4.3746    8.5868    2.6012 S.2     1  LIG1       -0.0946
     43 H          -6.1715   10.1915    3.0339 H       1  LIG1        0.0696
     44 C          -4.0801    9.8860   -1.1222 C.1     1  LIG1       -0.0682
     45 C          -3.8655   10.1272   -2.2807 C.1     1  LIG1       -0.1139
     46 H          -3.6715   10.3286   -3.3090 H       1  LIG1        0.1232
     47 C          -6.2149   11.4349    0.3914 C.3     1  LIG1       -0.0380
     48 H          -6.9254   11.8196    1.1214 H       1  LIG1        0.0278
     49 H          -6.7589   11.0573   -0.4753 H       1  LIG1        0.0278
     50 H          -5.5675   12.2469    0.0580 H       1  LIG1        0.0278
@<TRIPOS>BOND
     1     6     1    1
     2    46    45    1
     3     5     1   ar
     4     5     4   ar
     5     1     2   ar
     6    45    44    3
     7    33    32    1
     8    32    31    3
     9    36    34    1
    10     2     7    1
    11     2     3   ar
    12    44    39    1
    13     4    14    1
    14     4     3   ar
    15    31    27    1
    16    18    14   ar
    17    18    17   ar
    18     7     8    3
    19    14    15   ar
    20    49    47    1
    21     3    10    1
    22    27    28   ar
    23    27    26   ar
    24    34    28    1
    25    34    37    1
    26    34    35    1
    27     8     9    1
    28    17    26    1
    29    17    16   ar
    30    28    29   ar
    31    15    19    1
    32    15    16   ar
    33    50    47    1
    34    26    30   ar
    35    39    40   ar
    36    39    38   ar
    37    19    20    3
    38    47    40    1
    39    47    48    1
    40    16    22    1
    41    24    22    1
    42    29    30   ar
    43    29    38    1
    44    20    21    1
    45    40    41   ar
    46    38    42   ar
    47    10    12    1
    48    10    13    1
    49    10    11    1
    50    22    23    1
    51    22    25    1
    52    41    42   ar
    53    41    43    1
