@<TRIPOS>MOLECULE
mol_data/opt/m06hf/geoms/mol2/5ei5ei5ei5ei.out
 50 53 0 0 0
SMALL
GASTEIGER

@<TRIPOS>ATOM
      1 C          -0.9157   -1.3847   -2.5199 C.ar    1  LIG1       -0.0081
      2 C          -0.6487   -1.6952   -1.2179 C.ar    1  LIG1        0.0352
      3 C          -0.4506   -0.5312   -0.3845 C.ar    1  LIG1       -0.0198
      4 C          -0.5686    0.6182   -1.1120 C.ar    1  LIG1        0.0312
      5 S          -0.9244    0.3057   -2.7831 S.2     1  LIG1       -0.0946
      6 H          -1.1058   -2.0754   -3.3249 H       1  LIG1        0.0706
      7 C          -0.5863   -3.0398   -0.7112 C.1     1  LIG1       -0.0688
      8 C          -0.5337   -4.1554   -0.2673 C.1     1  LIG1       -0.1139
      9 H          -0.4882   -5.1467    0.1194 H       1  LIG1        0.1232
     10 C          -0.1882   -0.6300    1.0968 C.3     1  LIG1       -0.0374
     11 H          -0.3023    0.3445    1.5684 H       1  LIG1        0.0278
     12 H           0.8277   -0.9880    1.2703 H       1  LIG1        0.0278
     13 H          -0.8883   -1.3394    1.5394 H       1  LIG1        0.0278
     14 C          -0.4207    1.9975   -0.6318 C.ar    1  LIG1        0.0424
     15 C           0.6478    2.5349    0.0418 C.ar    1  LIG1        0.0435
     16 C           0.4675    3.9222    0.3957 C.ar    1  LIG1       -0.0191
     17 C          -0.7341    4.3924   -0.0518 C.ar    1  LIG1        0.0318
     18 S          -1.6571    3.1722   -0.8686 S.2     1  LIG1       -0.0856
     19 C           1.8452    1.8044    0.3502 C.1     1  LIG1       -0.0682
     20 C           2.8585    1.2155    0.6183 C.1     1  LIG1       -0.1139
     21 H           3.7561    0.6882    0.8442 H       1  LIG1        0.1232
     22 C           1.4945    4.7001    1.1787 C.3     1  LIG1       -0.0374
     23 H           1.0646    5.6318    1.5430 H       1  LIG1        0.0278
     24 H           2.3496    4.9322    0.5422 H       1  LIG1        0.0278
     25 H           1.8387    4.0981    2.0202 H       1  LIG1        0.0278
     26 C          -1.2686    5.7522    0.0882 C.ar    1  LIG1        0.0424
     27 C          -0.6697    6.9282   -0.2884 C.ar    1  LIG1        0.0435
     28 C          -1.4580    8.0995    0.0112 C.ar    1  LIG1       -0.0191
     29 C          -2.6496    7.7579    0.5847 C.ar    1  LIG1        0.0318
     30 S          -2.8157    6.0445    0.7906 S.2     1  LIG1       -0.0856
     31 C           0.6081    7.0000   -0.9413 C.1     1  LIG1       -0.0682
     32 C           1.6733    7.0914   -1.4919 C.1     1  LIG1       -0.1139
     33 H           2.6129    7.1640   -1.9893 H       1  LIG1        0.1232
     34 C          -0.9699    9.4980   -0.2682 C.3     1  LIG1       -0.0374
     35 H          -1.5954   10.2251    0.2471 H       1  LIG1        0.0278
     36 H          -1.0084    9.6986   -1.3401 H       1  LIG1        0.0278
     37 H           0.0632    9.5927    0.0676 H       1  LIG1        0.0278
     38 C          -3.7266    8.6564    1.0166 C.ar    1  LIG1        0.0418
     39 C          -4.3584    9.6250    0.2777 C.ar    1  LIG1        0.0428
     40 C          -5.3788   10.3322    1.0176 C.ar    1  LIG1       -0.0274
     41 C          -5.4842    9.8568    2.2850 C.ar    1  LIG1       -0.0196
     42 S          -4.3699    8.5842    2.6157 S.2     1  LIG1       -0.0946
     43 H          -6.1650   10.1900    3.0524 H       1  LIG1        0.0696
     44 C          -4.0750    9.8915   -1.1049 C.1     1  LIG1       -0.0682
     45 C          -3.8604   10.1351   -2.2629 C.1     1  LIG1       -0.1139
     46 H          -3.6664   10.3386   -3.2908 H       1  LIG1        0.1232
     47 C          -6.2077   11.4393    0.4128 C.3     1  LIG1       -0.0380
     48 H          -6.9175   11.8232    1.1438 H       1  LIG1        0.0278
     49 H          -6.7523   11.0643   -0.4546 H       1  LIG1        0.0278
     50 H          -5.5594   12.2514    0.0811 H       1  LIG1        0.0278
@<TRIPOS>BOND
     1     6     1    1
     2    46    45    1
     3     5     1   ar
     4     5     4   ar
     5     1     2   ar
     6    45    44    3
     7    33    32    1
     8    32    31    3
     9    36    34    1
    10     2     7    1
    11     2     3   ar
    12     4    14    1
    13     4     3   ar
    14    44    39    1
    15    31    27    1
    16    18    14   ar
    17    18    17   ar
    18     7     8    3
    19    14    15   ar
    20    49    47    1
    21     3    10    1
    22    27    28   ar
    23    27    26   ar
    24    34    28    1
    25    34    37    1
    26    34    35    1
    27     8     9    1
    28    17    26    1
    29    17    16   ar
    30    28    29   ar
    31    15    19    1
    32    15    16   ar
    33    50    47    1
    34    26    30   ar
    35    39    38   ar
    36    39    40   ar
    37    19    20    3
    38    16    22    1
    39    47    40    1
    40    47    48    1
    41    24    22    1
    42    29    30   ar
    43    29    38    1
    44    20    21    1
    45    38    42   ar
    46    40    41   ar
    47    10    12    1
    48    10    13    1
    49    10    11    1
    50    22    23    1
    51    22    25    1
    52    41    42   ar
    53    41    43    1
