@<TRIPOS>MOLECULE
mol_data/opt/m06hf/geoms/mol2/5ei5ei-5ei-5ei-.out
 50 53 0 0 0
SMALL
GASTEIGER

@<TRIPOS>ATOM
      1 C          -0.9039   -1.3629   -2.5627 C.ar    1  LIG1       -0.0081
      2 C          -0.6394   -1.6841   -1.2628 C.ar    1  LIG1        0.0352
      3 C          -0.4443   -0.5269   -0.4192 C.ar    1  LIG1       -0.0198
      4 C          -0.5619    0.6284   -1.1373 C.ar    1  LIG1        0.0312
      5 S          -0.9137    0.3296   -2.8117 S.2     1  LIG1       -0.0946
      6 H          -1.0916   -2.0471   -3.3739 H       1  LIG1        0.0706
      7 C          -0.5768   -3.0329   -0.7673 C.1     1  LIG1       -0.0688
      8 C          -0.5241   -4.1521   -0.3326 C.1     1  LIG1       -0.1139
      9 H          -0.4784   -5.1466    0.0459 H       1  LIG1        0.1232
     10 C          -0.1850   -0.6379    1.0618 C.3     1  LIG1       -0.0374
     11 H          -0.3011    0.3325    1.5412 H       1  LIG1        0.0278
     12 H           0.8308   -0.9964    1.2344 H       1  LIG1        0.0278
     13 H          -0.8854   -1.3517    1.4969 H       1  LIG1        0.0278
     14 C          -0.4164    2.0038   -0.6452 C.ar    1  LIG1        0.0424
     15 C           0.6500    2.5366    0.0352 C.ar    1  LIG1        0.0435
     16 C           0.4676    3.9207    0.4003 C.ar    1  LIG1       -0.0191
     17 C          -0.7335    4.3934   -0.0458 C.ar    1  LIG1        0.0318
     18 S          -1.6534    3.1792   -0.8749 S.2     1  LIG1       -0.0856
     19 C           1.8475    1.8047    0.3400 C.1     1  LIG1       -0.0682
     20 C           2.8608    1.2146    0.6054 C.1     1  LIG1       -0.1139
     21 H           3.7585    0.6862    0.8289 H       1  LIG1        0.1232
     22 C           1.4921    4.6929    1.1920 C.3     1  LIG1       -0.0374
     23 H           1.0605    5.6211    1.5632 H       1  LIG1        0.0278
     24 H           2.3483    4.9311    0.5594 H       1  LIG1        0.0278
     25 H           1.8350    4.0843    2.0292 H       1  LIG1        0.0278
     26 C          -1.2697    5.7515    0.1044 C.ar    1  LIG1        0.0424
     27 C          -0.6712    6.9311   -0.2611 C.ar    1  LIG1        0.0435
     28 C          -1.4613    8.0991    0.0467 C.ar    1  LIG1       -0.0191
     29 C          -2.6537    7.7516    0.6147 C.ar    1  LIG1        0.0318
     30 S          -2.8186    6.0363    0.8058 S.2     1  LIG1       -0.0856
     31 C           0.6080    7.0097   -0.9105 C.1     1  LIG1       -0.0682
     32 C           1.6743    7.1067   -1.4580 C.1     1  LIG1       -0.1139
     33 H           2.6149    7.1845   -1.9527 H       1  LIG1        0.1232
     34 C          -0.9739    9.5004   -0.2200 C.3     1  LIG1       -0.0374
     35 H          -1.6013   10.2226    0.3001 H       1  LIG1        0.0278
     36 H          -1.0104    9.7099   -1.2902 H       1  LIG1        0.0278
     37 H           0.0584    9.5933    0.1188 H       1  LIG1        0.0278
     38 C          -3.7326    8.6453    1.0518 C.ar    1  LIG1        0.0418
     39 C          -4.3637    9.6194    0.3197 C.ar    1  LIG1        0.0428
     40 C          -5.3865   10.3194    1.0633 C.ar    1  LIG1       -0.0274
     41 C          -5.4941    9.8333    2.3263 C.ar    1  LIG1       -0.0196
     42 S          -4.3793    8.5591    2.6488 S.2     1  LIG1       -0.0946
     43 H          -6.1769   10.1593    3.0951 H       1  LIG1        0.0696
     44 C          -4.0776    9.8979   -1.0600 C.1     1  LIG1       -0.0682
     45 C          -3.8608   10.1514   -2.2155 C.1     1  LIG1       -0.1139
     46 H          -3.6648   10.3637   -3.2412 H       1  LIG1        0.1232
     47 C          -6.2152   11.4308    0.4659 C.3     1  LIG1       -0.0380
     48 H          -6.9269   11.8078    1.1986 H       1  LIG1        0.0278
     49 H          -6.7575   11.0625   -0.4058 H       1  LIG1        0.0278
     50 H          -5.5670   12.2463    0.1425 H       1  LIG1        0.0278
@<TRIPOS>BOND
     1     6     1    1
     2    46    45    1
     3     5     1   ar
     4     5     4   ar
     5     1     2   ar
     6    45    44    3
     7    33    32    1
     8    32    31    3
     9    36    34    1
    10     2     7    1
    11     2     3   ar
    12     4    14    1
    13     4     3   ar
    14    44    39    1
    15    31    27    1
    16    18    14   ar
    17    18    17   ar
    18     7     8    3
    19    14    15   ar
    20     3    10    1
    21    49    47    1
    22     8     9    1
    23    27    28   ar
    24    27    26   ar
    25    34    28    1
    26    34    37    1
    27    34    35    1
    28    17    26    1
    29    17    16   ar
    30    15    19    1
    31    15    16   ar
    32    28    29   ar
    33    26    30   ar
    34    50    47    1
    35    39    38   ar
    36    39    40   ar
    37    19    20    3
    38    16    22    1
    39    47    40    1
    40    47    48    1
    41    24    22    1
    42    20    21    1
    43    29    30   ar
    44    29    38    1
    45    38    42   ar
    46    10    12    1
    47    10    13    1
    48    10    11    1
    49    40    41   ar
    50    22    23    1
    51    22    25    1
    52    41    42   ar
    53    41    43    1
