@<TRIPOS>MOLECULE
mol_data/opt/m06hf/geoms/mol2/5ei5ei5ei-5ei.out
 50 53 0 0 0
SMALL
GASTEIGER

@<TRIPOS>ATOM
      1 C          -0.8870   -1.3751   -2.5420 C.ar    1  LIG1       -0.0081
      2 C          -0.6290   -1.6898   -1.2392 C.ar    1  LIG1        0.0352
      3 C          -0.4389   -0.5284   -0.4003 C.ar    1  LIG1       -0.0198
      4 C          -0.5535    0.6233   -1.1246 C.ar    1  LIG1        0.0312
      5 S          -0.8965    0.3162   -2.7993 S.2     1  LIG1       -0.0946
      6 H          -1.0701   -2.0633   -3.3508 H       1  LIG1        0.0706
      7 C          -0.5682   -3.0361   -0.7368 C.1     1  LIG1       -0.0688
      8 C          -0.5170   -4.1531   -0.2964 C.1     1  LIG1       -0.1139
      9 H          -0.4726   -5.1457    0.0871 H       1  LIG1        0.1232
     10 C          -0.1871   -0.6320    1.0826 C.3     1  LIG1       -0.0374
     11 H          -0.3063    0.3407    1.5567 H       1  LIG1        0.0278
     12 H           0.8281   -0.9889    1.2621 H       1  LIG1        0.0278
     13 H          -0.8892   -1.3441    1.5175 H       1  LIG1        0.0278
     14 C          -0.4113    2.0012   -0.6385 C.ar    1  LIG1        0.0424
     15 C           0.6513    2.5380    0.0448 C.ar    1  LIG1        0.0435
     16 C           0.4662    3.9237    0.4022 C.ar    1  LIG1       -0.0191
     17 C          -0.7329    4.3936   -0.0524 C.ar    1  LIG1        0.0318
     18 S          -1.6478    3.1747   -0.8802 S.2     1  LIG1       -0.0856
     19 C           1.8477    1.8083    0.3593 C.1     1  LIG1       -0.0682
     20 C           2.8599    1.2201    0.6327 C.1     1  LIG1       -0.1139
     21 H           3.7568    0.6934    0.8634 H       1  LIG1        0.1232
     22 C           1.4862    4.7005    1.1953 C.3     1  LIG1       -0.0374
     23 H           1.0521    5.6302    1.5597 H       1  LIG1        0.0278
     24 H           2.3455    4.9361    0.5660 H       1  LIG1        0.0278
     25 H           1.8252    4.0962    2.0373 H       1  LIG1        0.0278
     26 C          -1.2706    5.7520    0.0884 C.ar    1  LIG1        0.0424
     27 C          -0.6709    6.9302   -0.2797 C.ar    1  LIG1        0.0435
     28 C          -1.4632    8.0993    0.0182 C.ar    1  LIG1       -0.0191
     29 C          -2.6584    7.7538    0.5818 C.ar    1  LIG1        0.0318
     30 S          -2.8233    6.0393    0.7805 S.2     1  LIG1       -0.0856
     31 C           0.6116    7.0064   -0.9230 C.1     1  LIG1       -0.0682
     32 C           1.6806    7.1014   -1.4655 C.1     1  LIG1       -0.1139
     33 H           2.6237    7.1773   -1.9557 H       1  LIG1        0.1232
     34 C          -0.9754    9.4995   -0.2528 C.3     1  LIG1       -0.0374
     35 H          -1.6058   10.2238    0.2605 H       1  LIG1        0.0278
     36 H          -1.0065    9.7038   -1.3242 H       1  LIG1        0.0278
     37 H           0.0551    9.5947    0.0908 H       1  LIG1        0.0278
     38 C          -3.7400    8.6490    1.0089 C.ar    1  LIG1        0.0418
     39 C          -4.3680    9.6191    0.2688 C.ar    1  LIG1        0.0428
     40 C          -5.3949   10.3221    1.0037 C.ar    1  LIG1       -0.0274
     41 C          -5.5088    9.8421    2.2686 C.ar    1  LIG1       -0.0196
     42 S          -4.3949    8.5702    2.6030 S.2     1  LIG1       -0.0946
     43 H          -6.1957   10.1715    3.0322 H       1  LIG1        0.0696
     44 C          -4.0749    9.8910   -1.1107 C.1     1  LIG1       -0.0682
     45 C          -3.8523   10.1390   -2.2663 C.1     1  LIG1       -0.1139
     46 H          -3.6512   10.3463   -3.2921 H       1  LIG1        0.1232
     47 C          -6.2212   11.4300    0.3967 C.3     1  LIG1       -0.0380
     48 H          -6.9369   11.8102    1.1239 H       1  LIG1        0.0278
     49 H          -6.7589   11.0571   -0.4759 H       1  LIG1        0.0278
     50 H          -5.5718   12.2443    0.0725 H       1  LIG1        0.0278
@<TRIPOS>BOND
     1     6     1    1
     2    46    45    1
     3     5     1   ar
     4     5     4   ar
     5     1     2   ar
     6    45    44    3
     7    33    32    1
     8    32    31    3
     9    36    34    1
    10     2     7    1
    11     2     3   ar
    12     4    14    1
    13     4     3   ar
    14    44    39    1
    15    31    27    1
    16    18    14   ar
    17    18    17   ar
    18     7     8    3
    19    14    15   ar
    20    49    47    1
    21     3    10    1
    22     8     9    1
    23    27    28   ar
    24    27    26   ar
    25    34    28    1
    26    34    37    1
    27    34    35    1
    28    17    26    1
    29    17    16   ar
    30    28    29   ar
    31    15    19    1
    32    15    16   ar
    33    50    47    1
    34    26    30   ar
    35    39    40   ar
    36    39    38   ar
    37    19    20    3
    38    47    40    1
    39    47    48    1
    40    16    22    1
    41    24    22    1
    42    29    30   ar
    43    29    38    1
    44    20    21    1
    45    40    41   ar
    46    38    42   ar
    47    10    12    1
    48    10    13    1
    49    10    11    1
    50    22    23    1
    51    22    25    1
    52    41    42   ar
    53    41    43    1
