@<TRIPOS>MOLECULE
mol_data/opt/m06hf/geoms/mol2/5ei5ei-5ei-.out
 38 40 0 0 0
SMALL
GASTEIGER

@<TRIPOS>ATOM
      1 C          -1.5065   -1.5803   -1.8074 C.ar    1  LIG1       -0.0081
      2 C          -0.7178   -1.8154   -0.7189 C.ar    1  LIG1        0.0352
      3 C          -0.3129   -0.6067   -0.0377 C.ar    1  LIG1       -0.0198
      4 C          -0.8133    0.4990   -0.6625 C.ar    1  LIG1        0.0312
      5 S          -1.7710    0.0932   -2.0509 S.2     1  LIG1       -0.0946
      6 H          -1.9357   -2.3153   -2.4685 H       1  LIG1        0.0706
      7 C          -0.3333   -3.1285   -0.2743 C.1     1  LIG1       -0.0688
      8 C          -0.0013   -4.2155    0.1171 C.1     1  LIG1       -0.1139
      9 H           0.2901   -5.1817    0.4589 H       1  LIG1        0.1232
     10 C           0.5231   -0.6223    1.2166 C.3     1  LIG1       -0.0374
     11 H           0.4936    0.3509    1.7041 H       1  LIG1        0.0278
     12 H           1.5586   -0.8602    0.9693 H       1  LIG1        0.0278
     13 H           0.1413   -1.3867    1.8941 H       1  LIG1        0.0278
     14 C          -0.6206    1.9047   -0.2872 C.ar    1  LIG1        0.0424
     15 C           0.5672    2.5654   -0.0967 C.ar    1  LIG1        0.0435
     16 C           0.4033    3.9499    0.2760 C.ar    1  LIG1       -0.0191
     17 C          -0.9171    4.2923    0.3319 C.ar    1  LIG1        0.0318
     18 S          -1.9596    2.9567   -0.0338 S.2     1  LIG1       -0.0856
     19 C           1.8571    1.9588   -0.2764 C.1     1  LIG1       -0.0682
     20 C           2.9519    1.4830   -0.4213 C.1     1  LIG1       -0.1139
     21 H           3.9200    1.0599   -0.5596 H       1  LIG1        0.1232
     22 C           1.5718    4.8574    0.5679 C.3     1  LIG1       -0.0374
     23 H           1.2334    5.7490    1.0937 H       1  LIG1        0.0278
     24 H           2.0479    5.1610   -0.3658 H       1  LIG1        0.0278
     25 H           2.3010    4.3224    1.1769 H       1  LIG1        0.0278
     26 C          -1.4849    5.6109    0.6381 C.ar    1  LIG1        0.0418
     27 C          -1.2071    6.8023    0.0172 C.ar    1  LIG1        0.0428
     28 C          -1.9460    7.9168    0.5645 C.ar    1  LIG1       -0.0274
     29 C          -2.7615    7.5154    1.5730 C.ar    1  LIG1       -0.0196
     30 S          -2.6511    5.8263    1.8899 S.2     1  LIG1       -0.0946
     31 H          -3.4306    8.1306    2.1537 H       1  LIG1        0.0696
     32 C          -0.3071    6.9364   -1.0943 C.1     1  LIG1       -0.0682
     33 C           0.4366    7.0833   -2.0277 C.1     1  LIG1       -0.1139
     34 H           1.0906    7.2037   -2.8604 H       1  LIG1        0.1232
     35 C          -1.8119    9.3244    0.0367 C.3     1  LIG1       -0.0380
     36 H          -2.4631    9.9997    0.5894 H       1  LIG1        0.0278
     37 H          -2.0805    9.3511   -1.0203 H       1  LIG1        0.0278
     38 H          -0.7794    9.6626    0.1332 H       1  LIG1        0.0278
@<TRIPOS>BOND
     1    34    33    1
     2     6     1    1
     3     5     1   ar
     4     5     4   ar
     5    33    32    3
     6     1     2   ar
     7    32    27    1
     8    37    35    1
     9     2     7    1
    10     2     3   ar
    11     4    14    1
    12     4     3   ar
    13    21    20    1
    14    20    19    3
    15    24    22    1
    16    14    15   ar
    17    14    18   ar
    18    19    15    1
    19     7     8    3
    20    15    16   ar
    21     3    10    1
    22    18    17   ar
    23    27    28   ar
    24    27    26   ar
    25    35    38    1
    26    35    28    1
    27    35    36    1
    28     8     9    1
    29    16    17   ar
    30    16    22    1
    31    17    26    1
    32    28    29   ar
    33    22    23    1
    34    22    25    1
    35    26    30   ar
    36    12    10    1
    37    10    11    1
    38    10    13    1
    39    29    30   ar
    40    29    31    1
