@<TRIPOS>MOLECULE
mol_data/opt/m06hf/geoms/mol2/5ei5ei.out
 26 27 0 0 0
SMALL
GASTEIGER

@<TRIPOS>ATOM
      1 C          -1.8846   -1.7312   -1.0033 C.ar    1  LIG1       -0.0081
      2 C          -0.7240   -1.8342   -0.2934 C.ar    1  LIG1        0.0352
      3 C          -0.2405   -0.5627    0.1952 C.ar    1  LIG1       -0.0198
      4 C          -1.0669    0.4550   -0.1840 C.ar    1  LIG1        0.0312
      5 S          -2.4187   -0.1087   -1.1157 S.2     1  LIG1       -0.0946
      6 H          -2.4393   -2.5349   -1.4585 H       1  LIG1        0.0706
      7 C          -0.0512   -3.0798   -0.0377 C.1     1  LIG1       -0.0688
      8 C           0.5206   -4.1132    0.1864 C.1     1  LIG1       -0.1139
      9 H           1.0196   -5.0339    0.3825 H       1  LIG1        0.1232
     10 C           1.0016   -0.4348    1.0397 C.3     1  LIG1       -0.0374
     11 H           1.0450    0.5509    1.5005 H       1  LIG1        0.0278
     12 H           1.8885   -0.5716    0.4191 H       1  LIG1        0.0278
     13 H           0.9938   -1.2049    1.8117 H       1  LIG1        0.0278
     14 C          -0.9109    1.8869    0.0979 C.ar    1  LIG1        0.0418
     15 C           0.1750    2.6799   -0.1744 C.ar    1  LIG1        0.0428
     16 C          -0.0031    4.0533    0.2386 C.ar    1  LIG1       -0.0274
     17 C          -1.2255    4.2419    0.7985 C.ar    1  LIG1       -0.0196
     18 S          -2.1632    2.7981    0.8550 S.2     1  LIG1       -0.0946
     19 H          -1.6297    5.1637    1.1857 H       1  LIG1        0.0696
     20 C           1.3604    2.2154   -0.8397 C.1     1  LIG1       -0.0682
     21 C           2.3638    1.8610   -1.3995 C.1     1  LIG1       -0.1139
     22 H           3.2455    1.5404   -1.9039 H       1  LIG1        0.1232
     23 C           1.0532    5.1126    0.0374 C.3     1  LIG1       -0.0380
     24 H           0.7025    6.0716    0.4153 H       1  LIG1        0.0278
     25 H           1.2867    5.2085   -1.0240 H       1  LIG1        0.0278
     26 H           1.9681    4.8329    0.5613 H       1  LIG1        0.0278
@<TRIPOS>BOND
     1    22    21    1
     2     6     1    1
     3    21    20    3
     4     5     1   ar
     5     5     4   ar
     6    25    23    1
     7     1     2   ar
     8    20    15    1
     9     2     7    1
    10     2     3   ar
    11     4    14    1
    12     4     3   ar
    13    15    14   ar
    14    15    16   ar
    15     7     8    3
    16    23    16    1
    17    23    24    1
    18    23    26    1
    19    14    18   ar
    20     8     9    1
    21     3    10    1
    22    16    17   ar
    23    12    10    1
    24    17    18   ar
    25    17    19    1
    26    10    11    1
    27    10    13    1
