@<TRIPOS>MOLECULE
mol_data/opt/m06hf/geoms/mol2/5ei5ei-5ei5ei.out
 50 53 0 0 0
SMALL
GASTEIGER

@<TRIPOS>ATOM
      1 C          -0.9442   -1.3694   -2.5449 C.ar    1  LIG1       -0.0081
      2 C          -0.6646   -1.6880   -1.2476 C.ar    1  LIG1        0.0352
      3 C          -0.4577   -0.5293   -0.4090 C.ar    1  LIG1       -0.0198
      4 C          -0.5822    0.6246   -1.1282 C.ar    1  LIG1        0.0312
      5 S          -0.9545    0.3227   -2.7976 S.2     1  LIG1       -0.0946
      6 H          -1.1426   -2.0551   -3.3523 H       1  LIG1        0.0706
      7 C          -0.5982   -3.0358   -0.7498 C.1     1  LIG1       -0.0688
      8 C          -0.5419   -4.1541   -0.3132 C.1     1  LIG1       -0.1139
      9 H          -0.4931   -5.1478    0.0669 H       1  LIG1        0.1232
     10 C          -0.1809   -0.6373    1.0691 C.3     1  LIG1       -0.0374
     11 H          -0.2898    0.3344    1.5477 H       1  LIG1        0.0278
     12 H           0.8365   -0.9969    1.2303 H       1  LIG1        0.0278
     13 H          -0.8770   -1.3491    1.5142 H       1  LIG1        0.0278
     14 C          -0.4287    2.0009   -0.6410 C.ar    1  LIG1        0.0424
     15 C           0.6466    2.5336    0.0254 C.ar    1  LIG1        0.0435
     16 C           0.4707    3.9188    0.3895 C.ar    1  LIG1       -0.0191
     17 C          -0.7351    4.3924   -0.0432 C.ar    1  LIG1        0.0318
     18 S          -1.6667    3.1777   -0.8585 S.2     1  LIG1       -0.0856
     19 C           1.8466    1.8005    0.3175 C.1     1  LIG1       -0.0682
     20 C           2.8621    1.2095    0.5721 C.1     1  LIG1       -0.1139
     21 H           3.7616    0.6802    0.7860 H       1  LIG1        0.1232
     22 C           1.5057    4.6912    1.1672 C.3     1  LIG1       -0.0374
     23 H           1.0800    5.6209    1.5414 H       1  LIG1        0.0278
     24 H           2.3547    4.9267    0.5238 H       1  LIG1        0.0278
     25 H           1.8577    4.0840    2.0016 H       1  LIG1        0.0278
     26 C          -1.2673    5.7515    0.1103 C.ar    1  LIG1        0.0424
     27 C          -0.6715    6.9295   -0.2649 C.ar    1  LIG1        0.0435
     28 C          -1.4561    8.0994    0.0496 C.ar    1  LIG1       -0.0191
     29 C          -2.6421    7.7549    0.6327 C.ar    1  LIG1        0.0318
     30 S          -2.8073    6.0403    0.8296 S.2     1  LIG1       -0.0856
     31 C           0.5999    7.0047   -0.9299 C.1     1  LIG1       -0.0682
     32 C           1.6598    7.0988   -1.4903 C.1     1  LIG1       -0.1139
     33 H           2.5945    7.1740   -1.9964 H       1  LIG1        0.1232
     34 C          -0.9699    9.4993   -0.2260 C.3     1  LIG1       -0.0374
     35 H          -1.5898   10.2236    0.2999 H       1  LIG1        0.0278
     36 H          -1.0188    9.7065   -1.2962 H       1  LIG1        0.0278
     37 H           0.0666    9.5914    0.1002 H       1  LIG1        0.0278
     38 C          -3.7143    8.6513    1.0807 C.ar    1  LIG1        0.0418
     39 C          -4.3528    9.6247    0.3540 C.ar    1  LIG1        0.0428
     40 C          -5.3655   10.3279    1.1083 C.ar    1  LIG1       -0.0274
     41 C          -5.4587    9.8448    2.3736 C.ar    1  LIG1       -0.0196
     42 S          -4.3420    8.5696    2.6855 S.2     1  LIG1       -0.0946
     43 H          -6.1317   10.1735    3.1498 H       1  LIG1        0.0696
     44 C          -4.0828    9.8996   -1.0296 C.1     1  LIG1       -0.0682
     45 C          -3.8795   10.1502   -2.1882 C.1     1  LIG1       -0.1139
     46 H          -3.6956   10.3599   -3.2167 H       1  LIG1        0.1232
     47 C          -6.1996   11.4392    0.5184 C.3     1  LIG1       -0.0380
     48 H          -6.9020   11.8189    1.2587 H       1  LIG1        0.0278
     49 H          -6.7530   11.0698   -0.3459 H       1  LIG1        0.0278
     50 H          -5.5541   12.2530    0.1853 H       1  LIG1        0.0278
@<TRIPOS>BOND
     1     6     1    1
     2    46    45    1
     3     5     1   ar
     4     5     4   ar
     5     1     2   ar
     6    45    44    3
     7    33    32    1
     8    32    31    3
     9    36    34    1
    10     2     7    1
    11     2     3   ar
    12     4    14    1
    13     4     3   ar
    14    44    39    1
    15    31    27    1
    16    18    14   ar
    17    18    17   ar
    18     7     8    3
    19    14    15   ar
    20     3    10    1
    21    49    47    1
    22     8     9    1
    23    27    28   ar
    24    27    26   ar
    25    34    28    1
    26    34    37    1
    27    34    35    1
    28    17    26    1
    29    17    16   ar
    30    15    19    1
    31    15    16   ar
    32    28    29   ar
    33    26    30   ar
    34    50    47    1
    35    19    20    3
    36    39    38   ar
    37    39    40   ar
    38    16    22    1
    39    47    40    1
    40    47    48    1
    41    24    22    1
    42    20    21    1
    43    29    30   ar
    44    29    38    1
    45    10    12    1
    46    10    13    1
    47    10    11    1
    48    38    42   ar
    49    40    41   ar
    50    22    23    1
    51    22    25    1
    52    41    42   ar
    53    41    43    1
