@<TRIPOS>MOLECULE
mol_data/opt/m06hf/geoms/mol2/5ei5ei5ei-5ei-.out
 50 53 0 0 0
SMALL
GASTEIGER

@<TRIPOS>ATOM
      1 C          -0.8739   -1.3777   -2.5387 C.ar    1  LIG1       -0.0081
      2 C          -0.6177   -1.6904   -1.2351 C.ar    1  LIG1        0.0352
      3 C          -0.4306   -0.5277   -0.3973 C.ar    1  LIG1       -0.0198
      4 C          -0.5456    0.6230   -1.1232 C.ar    1  LIG1        0.0312
      5 S          -0.8852    0.3133   -2.7982 S.2     1  LIG1       -0.0946
      6 H          -1.0546   -2.0672   -3.3470 H       1  LIG1        0.0706
      7 C          -0.5559   -3.0359   -0.7308 C.1     1  LIG1       -0.0688
      8 C          -0.5040   -4.1523   -0.2890 C.1     1  LIG1       -0.1139
      9 H          -0.4590   -5.1444    0.0960 H       1  LIG1        0.1232
     10 C          -0.1814   -0.6290    1.0861 C.3     1  LIG1       -0.0374
     11 H          -0.3027    0.3441    1.5588 H       1  LIG1        0.0278
     12 H           0.8340   -0.9844    1.2679 H       1  LIG1        0.0278
     13 H          -0.8833   -1.3415    1.5208 H       1  LIG1        0.0278
     14 C          -0.4061    2.0017   -0.6387 C.ar    1  LIG1        0.0424
     15 C           0.6546    2.5408    0.0458 C.ar    1  LIG1        0.0435
     16 C           0.4670    3.9267    0.4011 C.ar    1  LIG1       -0.0191
     17 C          -0.7320    4.3944   -0.0562 C.ar    1  LIG1        0.0318
     18 S          -1.6438    3.1732   -0.8841 S.2     1  LIG1       -0.0856
     19 C           1.8514    1.8131    0.3634 C.1     1  LIG1       -0.0682
     20 C           2.8640    1.2266    0.6393 C.1     1  LIG1       -0.1139
     21 H           3.7611    0.7014    0.8722 H       1  LIG1        0.1232
     22 C           1.4845    4.7058    1.1951 C.3     1  LIG1       -0.0374
     23 H           1.0486    5.6355    1.5575 H       1  LIG1        0.0278
     24 H           2.3446    4.9418    0.5669 H       1  LIG1        0.0278
     25 H           1.8228    4.1031    2.0384 H       1  LIG1        0.0278
     26 C          -1.2718    5.7522    0.0820 C.ar    1  LIG1        0.0424
     27 C          -0.6730    6.9308   -0.2866 C.ar    1  LIG1        0.0435
     28 C          -1.4675    8.0991    0.0085 C.ar    1  LIG1       -0.0191
     29 C          -2.6632    7.7527    0.5704 C.ar    1  LIG1        0.0318
     30 S          -2.8260    6.0383    0.7710 S.2     1  LIG1       -0.0856
     31 C           0.6104    7.0079   -0.9277 C.1     1  LIG1       -0.0682
     32 C           1.6803    7.1036   -1.4684 C.1     1  LIG1       -0.1139
     33 H           2.6241    7.1802   -1.9571 H       1  LIG1        0.1232
     34 C          -0.9810    9.4997   -0.2634 C.3     1  LIG1       -0.0374
     35 H          -1.6133   10.2238    0.2479 H       1  LIG1        0.0278
     36 H          -1.0105    9.7026   -1.3351 H       1  LIG1        0.0278
     37 H           0.0487    9.5967    0.0819 H       1  LIG1        0.0278
     38 C          -3.7467    8.6470    0.9946 C.ar    1  LIG1        0.0418
     39 C          -4.3747    9.6153    0.2522 C.ar    1  LIG1        0.0428
     40 C          -5.4039   10.3178    0.9844 C.ar    1  LIG1       -0.0274
     41 C          -5.5193    9.8393    2.2497 C.ar    1  LIG1       -0.0196
     42 S          -4.4042    8.5693    2.5876 S.2     1  LIG1       -0.0946
     43 H          -6.2080   10.1686    3.0117 H       1  LIG1        0.0696
     44 C          -4.0796    9.8859   -1.1272 C.1     1  LIG1       -0.0682
     45 C          -3.8553   10.1327   -2.2826 C.1     1  LIG1       -0.1139
     46 H          -3.6527   10.3391   -3.3083 H       1  LIG1        0.1232
     47 C          -6.2306   11.4239    0.3746 C.3     1  LIG1       -0.0380
     48 H          -6.9481   11.8040    1.1000 H       1  LIG1        0.0278
     49 H          -6.7662   11.0492   -0.4985 H       1  LIG1        0.0278
     50 H          -5.5817   12.2386    0.0505 H       1  LIG1        0.0278
@<TRIPOS>BOND
     1     6     1    1
     2    46    45    1
     3     5     1   ar
     4     5     4   ar
     5     1     2   ar
     6    45    44    3
     7    33    32    1
     8    32    31    3
     9    36    34    1
    10     2     7    1
    11     2     3   ar
    12    44    39    1
    13     4    14    1
    14     4     3   ar
    15    31    27    1
    16    18    14   ar
    17    18    17   ar
    18     7     8    3
    19    14    15   ar
    20    49    47    1
    21     3    10    1
    22     8     9    1
    23    27    28   ar
    24    27    26   ar
    25    34    28    1
    26    34    37    1
    27    34    35    1
    28    17    26    1
    29    17    16   ar
    30    28    29   ar
    31    15    19    1
    32    15    16   ar
    33    50    47    1
    34    26    30   ar
    35    39    40   ar
    36    39    38   ar
    37    19    20    3
    38    47    40    1
    39    47    48    1
    40    16    22    1
    41    24    22    1
    42    29    30   ar
    43    29    38    1
    44    20    21    1
    45    40    41   ar
    46    38    42   ar
    47    10    12    1
    48    10    13    1
    49    10    11    1
    50    22    23    1
    51    22    25    1
    52    41    42   ar
    53    41    43    1
