@<TRIPOS>MOLECULE
mol_data/opt/m06hf/geoms/mol2/5ei5ei5ei-.out
 38 40 0 0 0
SMALL
GASTEIGER

@<TRIPOS>ATOM
      1 C          -1.4723   -1.5853   -1.8217 C.ar    1  LIG1       -0.0081
      2 C          -0.6999   -1.8173   -0.7209 C.ar    1  LIG1        0.0352
      3 C          -0.3072   -0.6068   -0.0358 C.ar    1  LIG1       -0.0198
      4 C          -0.7995    0.4971   -0.6701 C.ar    1  LIG1        0.0312
      5 S          -1.7354    0.0874   -2.0722 S.2     1  LIG1       -0.0946
      6 H          -1.8903   -2.3221   -2.4880 H       1  LIG1        0.0706
      7 C          -0.3203   -3.1290   -0.2682 C.1     1  LIG1       -0.0688
      8 C           0.0072   -4.2149    0.1303 C.1     1  LIG1       -0.1139
      9 H           0.2946   -5.1800    0.4783 H       1  LIG1        0.1232
     10 C           0.5096   -0.6190    1.2312 C.3     1  LIG1       -0.0374
     11 H           0.4716    0.3551    1.7162 H       1  LIG1        0.0278
     12 H           1.5490   -0.8563    1.0002 H       1  LIG1        0.0278
     13 H           0.1182   -1.3825    1.9043 H       1  LIG1        0.0278
     14 C          -0.6145    1.9037   -0.2945 C.ar    1  LIG1        0.0424
     15 C           0.5694    2.5663   -0.0871 C.ar    1  LIG1        0.0435
     16 C           0.3980    3.9513    0.2806 C.ar    1  LIG1       -0.0191
     17 C          -0.9235    4.2921    0.3156 C.ar    1  LIG1        0.0318
     18 S          -1.9586    2.9545   -0.0637 S.2     1  LIG1       -0.0856
     19 C           1.8627    1.9611   -0.2459 C.1     1  LIG1       -0.0682
     20 C           2.9602    1.4865   -0.3728 C.1     1  LIG1       -0.1139
     21 H           3.9309    1.0645   -0.4952 H       1  LIG1        0.1232
     22 C           1.5607    4.8607    0.5889 C.3     1  LIG1       -0.0374
     23 H           1.2132    5.7527    1.1082 H       1  LIG1        0.0278
     24 H           2.0506    5.1637   -0.3379 H       1  LIG1        0.0278
     25 H           2.2813    4.3276    1.2097 H       1  LIG1        0.0278
     26 C          -1.4977    5.6103    0.6109 C.ar    1  LIG1        0.0418
     27 C          -1.2117    6.8012   -0.0075 C.ar    1  LIG1        0.0428
     28 C          -1.9606    7.9156    0.5265 C.ar    1  LIG1       -0.0274
     29 C          -2.7911    7.5146    1.5228 C.ar    1  LIG1       -0.0196
     30 S          -2.6833    5.8262    1.8442 S.2     1  LIG1       -0.0946
     31 H          -3.4699    8.1298    2.0921 H       1  LIG1        0.0696
     32 C          -0.2948    6.9348   -1.1052 C.1     1  LIG1       -0.0682
     33 C           0.4627    7.0813   -2.0274 C.1     1  LIG1       -0.1139
     34 H           1.1291    7.2011   -2.8502 H       1  LIG1        0.1232
     35 C          -1.8200    9.3225   -0.0014 C.3     1  LIG1       -0.0380
     36 H          -2.4804    9.9979    0.5401 H       1  LIG1        0.0278
     37 H          -2.0724    9.3472   -1.0625 H       1  LIG1        0.0278
     38 H          -0.7896    9.6621    0.1104 H       1  LIG1        0.0278
@<TRIPOS>BOND
     1    34    33    1
     2     6     1    1
     3     5     1   ar
     4     5     4   ar
     5    33    32    3
     6     1     2   ar
     7    32    27    1
     8    37    35    1
     9     2     7    1
    10     2     3   ar
    11     4    14    1
    12     4     3   ar
    13    21    20    1
    14    20    19    3
    15    24    22    1
    16    14    15   ar
    17    14    18   ar
    18     7     8    3
    19    19    15    1
    20    15    16   ar
    21    18    17   ar
    22     3    10    1
    23    27    28   ar
    24    27    26   ar
    25    35    38    1
    26    35    28    1
    27    35    36    1
    28     8     9    1
    29    16    17   ar
    30    16    22    1
    31    17    26    1
    32    28    29   ar
    33    22    23    1
    34    22    25    1
    35    26    30   ar
    36    12    10    1
    37    10    11    1
    38    10    13    1
    39    29    30   ar
    40    29    31    1
