@<TRIPOS>MOLECULE
mol_data/opt/m06hf/geoms/mol2/5el.out
 15 15 0 0 0
SMALL
GASTEIGER

@<TRIPOS>ATOM
      1 C          -2.1597   -1.7283    0.0005 C.ar    1  LIG1       -0.0053
      2 C          -0.7916   -1.7711   -0.0002 C.ar    1  LIG1        0.0732
      3 C          -0.2222   -0.4328   -0.0004 C.ar    1  LIG1        0.1424
      4 C          -1.1845    0.5289    0.0001 C.ar    1  LIG1        0.0186
      5 S          -2.7695   -0.1342    0.0009 S.2     1  LIG1       -0.1001
      6 H          -2.8197   -2.5799    0.0008 H       1  LIG1        0.0707
      7 H          -1.0132    1.5913    0.0001 H       1  LIG1        0.0730
      8 C          -0.1075   -3.0383   -0.0007 C.1     1  LIG1       -0.0655
      9 C           0.4126   -4.1226   -0.0011 C.1     1  LIG1       -0.1138
     10 H           0.8778   -5.0814   -0.0014 H       1  LIG1        0.1232
     11 O           1.0815   -0.0701   -0.0011 O.3     1  LIG1       -0.4934
     12 C           2.0903   -1.0688   -0.0010 C.3     1  LIG1        0.0789
     13 H           3.0300   -0.5223   -0.0012 H       1  LIG1        0.0660
     14 H           2.0196   -1.6914    0.8912 H       1  LIG1        0.0660
     15 H           2.0193   -1.6919   -0.8927 H       1  LIG1        0.0660
@<TRIPOS>BOND
     1    15    12    1
     2    10     9    1
     3    13    12    1
     4    11    12    1
     5    11     3    1
     6     9     8    3
     7    12    14    1
     8     8     2    1
     9     3     2   ar
    10     3     4   ar
    11     2     1   ar
    12     7     4    1
    13     4     5   ar
    14     1     6    1
    15     1     5   ar
