@<TRIPOS>MOLECULE
mol_data/opt/m06hf/geoms/mol2/5el5el-5el-5el.out
 54 57 0 0 0
SMALL
GASTEIGER

@<TRIPOS>ATOM
      1 C          -1.3569   -1.8408    2.2589 C.ar    1  LIG1       -0.0047
      2 C          -0.7654   -2.0368    1.0434 C.ar    1  LIG1        0.0739
      3 C          -0.3752   -0.7845    0.4300 C.ar    1  LIG1        0.1506
      4 C          -0.6900    0.2945    1.2082 C.ar    1  LIG1        0.0700
      5 S          -1.4601   -0.1873    2.6816 S.2     1  LIG1       -0.0911
      6 H          -1.7443   -2.6056    2.9121 H       1  LIG1        0.0707
      7 C          -0.6255   -3.3385    0.4496 C.1     1  LIG1       -0.0654
      8 C          -0.5304   -4.4401   -0.0214 C.1     1  LIG1       -0.1138
      9 H          -0.4530   -5.4173   -0.4388 H       1  LIG1        0.1232
     10 O           0.1691   -0.6399   -0.7958 O.3     1  LIG1       -0.4927
     11 C           1.2995   -1.4585   -1.1055 C.3     1  LIG1        0.0789
     12 H           1.8142   -0.9500   -1.9167 H       1  LIG1        0.0660
     13 H           1.9560   -1.5315   -0.2372 H       1  LIG1        0.0660
     14 H           0.9733   -2.4480   -1.4184 H       1  LIG1        0.0660
     15 C          -0.4654    1.7001    0.8744 C.ar    1  LIG1        0.0491
     16 C           0.6900    2.2814    0.4217 C.ar    1  LIG1        0.0823
     17 C           0.5288    3.6944    0.1863 C.ar    1  LIG1        0.1513
     18 C          -0.7280    4.1454    0.4692 C.ar    1  LIG1        0.0706
     19 S          -1.7416    2.8549    1.0231 S.2     1  LIG1       -0.0820
     20 C           1.9474    1.6185    0.2372 C.1     1  LIG1       -0.0648
     21 C           3.0298    1.1197    0.0797 C.1     1  LIG1       -0.1138
     22 H           3.9930    0.6823   -0.0480 H       1  LIG1        0.1232
     23 O           1.5276    4.4804   -0.2810 O.3     1  LIG1       -0.4927
     24 C           1.6774    4.4179   -1.7022 C.3     1  LIG1        0.0789
     25 H           2.4900    5.0963   -1.9481 H       1  LIG1        0.0660
     26 H           1.9273    3.4015   -2.0097 H       1  LIG1        0.0660
     27 H           0.7531    4.7419   -2.1846 H       1  LIG1        0.0660
     28 C          -1.2097    5.5164    0.3032 C.ar    1  LIG1        0.0491
     29 C          -0.6037    6.6677    0.7334 C.ar    1  LIG1        0.0823
     30 C          -1.3459    7.8438    0.3470 C.ar    1  LIG1        0.1513
     31 C          -2.4827    7.5555   -0.3504 C.ar    1  LIG1        0.0706
     32 S          -2.6758    5.8455   -0.5511 S.2     1  LIG1       -0.0820
     33 C           0.5970    6.7307    1.5129 C.1     1  LIG1       -0.0648
     34 C           1.6039    6.8038    2.1640 C.1     1  LIG1       -0.1138
     35 H           2.4978    6.8518    2.7411 H       1  LIG1        0.1232
     36 O          -0.9387    9.1016    0.6401 O.3     1  LIG1       -0.4927
     37 C           0.1177    9.5638   -0.2058 C.3     1  LIG1        0.0789
     38 H           0.3578   10.5673    0.1350 H       1  LIG1        0.0660
     39 H           0.9887    8.9142   -0.1100 H       1  LIG1        0.0660
     40 H          -0.2267    9.5878   -1.2418 H       1  LIG1        0.0660
     41 C          -3.4404    8.5199   -0.8915 C.ar    1  LIG1        0.0485
     42 C          -4.0138    9.5795   -0.2395 C.ar    1  LIG1        0.0816
     43 C          -4.9083   10.3201   -1.1025 C.ar    1  LIG1        0.1430
     44 C          -4.9833    9.8039   -2.3548 C.ar    1  LIG1        0.0193
     45 S          -3.9790    8.4169   -2.5313 S.2     1  LIG1       -0.0910
     46 H          -5.5926   10.1690   -3.1644 H       1  LIG1        0.0731
     47 C          -3.8300    9.8877    1.1480 C.1     1  LIG1       -0.0648
     48 C          -3.6909   10.1585    2.3102 C.1     1  LIG1       -0.1138
     49 H          -3.5605   10.3850    3.3428 H       1  LIG1        0.1232
     50 O          -5.6226   11.3983   -0.6852 O.3     1  LIG1       -0.4933
     51 C          -4.8310   12.5717   -0.4911 C.3     1  LIG1        0.0789
     52 H          -5.5149   13.3431   -0.1474 H       1  LIG1        0.0660
     53 H          -4.0615   12.3903    0.2603 H       1  LIG1        0.0660
     54 H          -4.3723   12.8673   -1.4369 H       1  LIG1        0.0660
@<TRIPOS>BOND
     1    46    44    1
     2    45    44   ar
     3    45    41   ar
     4    44    43   ar
     5    27    24    1
     6    26    24    1
     7    25    24    1
     8    12    11    1
     9    24    23    1
    10    54    51    1
    11    14    11    1
    12    40    37    1
    13    11    10    1
    14    11    13    1
    15    43    50    1
    16    43    42   ar
    17    41    31    1
    18    41    42   ar
    19    10     3    1
    20    50    51    1
    21    32    31   ar
    22    32    28   ar
    23    51    52    1
    24    51    53    1
    25     9     8    1
    26    31    30   ar
    27    23    17    1
    28    42    47    1
    29    37    39    1
    30    37    38    1
    31    37    36    1
    32    22    21    1
    33     8     7    3
    34    21    20    3
    35    17    16   ar
    36    17    18   ar
    37    20    16    1
    38    28    18    1
    39    28    29   ar
    40    30    36    1
    41    30    29   ar
    42    16    15   ar
    43     3     2   ar
    44     3     4   ar
    45     7     2    1
    46    18    19   ar
    47    29    33    1
    48    15    19   ar
    49    15     4    1
    50     2     1   ar
    51    47    48    3
    52     4     5   ar
    53    33    34    3
    54    34    35    1
    55     1     5   ar
    56     1     6    1
    57    48    49    1
