@<TRIPOS>MOLECULE
mol_data/opt/m06hf/geoms/mol2/5el5el-5el-.out
 41 43 0 0 0
SMALL
GASTEIGER

@<TRIPOS>ATOM
      1 C          -1.9017   -1.9033    1.3995 C.ar    1  LIG1       -0.0047
      2 C          -0.8860   -2.0703    0.5023 C.ar    1  LIG1        0.0739
      3 C          -0.3394   -0.8015    0.0698 C.ar    1  LIG1        0.1506
      4 C          -0.9658    0.2614    0.6584 C.ar    1  LIG1        0.0700
      5 S          -2.2194   -0.2568    1.7334 S.2     1  LIG1       -0.0911
      6 H          -2.4787   -2.6853    1.8650 H       1  LIG1        0.0707
      7 C          -0.4792   -3.3601    0.0151 C.1     1  LIG1       -0.0654
      8 C          -0.1615   -4.4493   -0.3815 C.1     1  LIG1       -0.1138
      9 H           0.1163   -5.4138   -0.7387 H       1  LIG1        0.1232
     10 O           0.6272   -0.6365   -0.8571 O.3     1  LIG1       -0.4927
     11 C           1.8275   -1.3927   -0.6763 C.3     1  LIG1        0.0789
     12 H           2.5979   -0.8561   -1.2238 H       1  LIG1        0.0660
     13 H           2.0859   -1.4337    0.3828 H       1  LIG1        0.0660
     14 H           1.7010   -2.3972   -1.0740 H       1  LIG1        0.0660
     15 C          -0.6907    1.6776    0.4184 C.ar    1  LIG1        0.0491
     16 C           0.5241    2.3117    0.4090 C.ar    1  LIG1        0.0823
     17 C           0.3995    3.7183    0.1167 C.ar    1  LIG1        0.1513
     18 C          -0.8914    4.1136   -0.0792 C.ar    1  LIG1        0.0706
     19 S          -1.9817    2.7798    0.0870 S.2     1  LIG1       -0.0820
     20 C           1.7907    1.7109    0.7082 C.1     1  LIG1       -0.0648
     21 C           2.8766    1.2679    0.9733 C.1     1  LIG1       -0.1138
     22 H           3.8369    0.8805    1.2239 H       1  LIG1        0.1232
     23 O           1.4681    4.5467    0.0352 O.3     1  LIG1       -0.4927
     24 C           2.1176    4.5014   -1.2379 C.3     1  LIG1        0.0789
     25 H           2.9627    5.1814   -1.1686 H       1  LIG1        0.0660
     26 H           2.4656    3.4883   -1.4461 H       1  LIG1        0.0660
     27 H           1.4271    4.8310   -2.0165 H       1  LIG1        0.0660
     28 C          -1.3440    5.4679   -0.3974 C.ar    1  LIG1        0.0485
     29 C          -0.9979    6.6291    0.2417 C.ar    1  LIG1        0.0816
     30 C          -1.6265    7.7827   -0.3635 C.ar    1  LIG1        0.1430
     31 C          -2.4145    7.4614   -1.4211 C.ar    1  LIG1        0.0193
     32 S          -2.4207    5.7660   -1.7160 S.2     1  LIG1       -0.0910
     33 H          -2.9968    8.1429   -2.0184 H       1  LIG1        0.0731
     34 C          -0.1796    6.7066    1.4162 C.1     1  LIG1       -0.0648
     35 C           0.5010    6.7839    2.4038 C.1     1  LIG1       -0.1138
     36 H           1.0994    6.8338    3.2839 H       1  LIG1        0.1232
     37 O          -1.4658    9.0485    0.1046 O.3     1  LIG1       -0.4933
     38 C          -0.1771    9.6017   -0.1667 C.3     1  LIG1        0.0789
     39 H          -0.1776   10.5960    0.2722 H       1  LIG1        0.0660
     40 H           0.6024    8.9911    0.2901 H       1  LIG1        0.0660
     41 H          -0.0219    9.6656   -1.2458 H       1  LIG1        0.0660
@<TRIPOS>BOND
     1    33    31    1
     2    27    24    1
     3    32    31   ar
     4    32    28   ar
     5    26    24    1
     6    31    30   ar
     7    41    38    1
     8    24    25    1
     9    24    23    1
    10    12    11    1
    11    14    11    1
    12    10    11    1
    13    10     3    1
    14     9     8    1
    15    11    13    1
    16    28    18    1
    17    28    29   ar
    18     8     7    3
    19    30    37    1
    20    30    29   ar
    21    38    37    1
    22    38    39    1
    23    38    40    1
    24    18    19   ar
    25    18    17   ar
    26     7     2    1
    27    23    17    1
    28     3     2   ar
    29     3     4   ar
    30    19    15   ar
    31    17    16   ar
    32    29    34    1
    33    16    15   ar
    34    16    20    1
    35    15     4    1
    36     2     1   ar
    37     4     5   ar
    38    20    21    3
    39    21    22    1
    40     1     5   ar
    41     1     6    1
    42    34    35    3
    43    35    36    1
