@<TRIPOS>MOLECULE
mol_data/opt/m06hf/geoms/mol2/5el5el-5el-5el-.out
 54 57 0 0 0
SMALL
GASTEIGER

@<TRIPOS>ATOM
      1 C          -1.1558   -2.0296    1.9907 C.ar    1  LIG1       -0.0047
      2 C          -0.6198   -2.1121    0.7370 C.ar    1  LIG1        0.0739
      3 C          -0.3037   -0.8037    0.2034 C.ar    1  LIG1        0.1506
      4 C          -0.6155    0.2008    1.0767 C.ar    1  LIG1        0.0700
      5 S          -1.2936   -0.4179    2.5432 S.2     1  LIG1       -0.0911
      6 H          -1.4829   -2.8554    2.6010 H       1  LIG1        0.0707
      7 C          -0.4657   -3.3611    0.0419 C.1     1  LIG1       -0.0654
      8 C          -0.3549   -4.4212   -0.5138 C.1     1  LIG1       -0.1138
      9 H          -0.2624   -5.3622   -1.0052 H       1  LIG1        0.1232
     10 O           0.1706   -0.5447   -1.0324 O.3     1  LIG1       -0.4927
     11 C           1.3087   -1.2960   -1.4621 C.3     1  LIG1        0.0789
     12 H           1.7644   -0.7080   -2.2548 H       1  LIG1        0.0660
     13 H           2.0114   -1.4133   -0.6357 H       1  LIG1        0.0660
     14 H           0.9984   -2.2693   -1.8363 H       1  LIG1        0.0660
     15 C          -0.4616    1.6354    0.8404 C.ar    1  LIG1        0.0491
     16 C           0.6479    2.2995    0.3858 C.ar    1  LIG1        0.0823
     17 C           0.4188    3.7178    0.2655 C.ar    1  LIG1        0.1513
     18 C          -0.8433    4.0885    0.6284 C.ar    1  LIG1        0.0706
     19 S          -1.7771    2.7189    1.1254 S.2     1  LIG1       -0.0820
     20 C           1.9200    1.7042    0.0991 C.1     1  LIG1       -0.0648
     21 C           3.0097    1.2563   -0.1399 C.1     1  LIG1       -0.1138
     22 H           3.9795    0.8630   -0.3396 H       1  LIG1        0.1232
     23 O           1.3651    4.5824   -0.1718 O.3     1  LIG1       -0.4927
     24 C           1.4664    4.6323   -1.5981 C.3     1  LIG1        0.0789
     25 H           2.2482    5.3539   -1.8188 H       1  LIG1        0.0660
     26 H           1.7373    3.6506   -1.9895 H       1  LIG1        0.0660
     27 H           0.5160    4.9599   -2.0238 H       1  LIG1        0.0660
     28 C          -1.3919    5.4440    0.6010 C.ar    1  LIG1        0.0491
     29 C          -0.8356    6.5732    1.1474 C.ar    1  LIG1        0.0823
     30 C          -1.6546    7.7424    0.9165 C.ar    1  LIG1        0.1513
     31 C          -2.7948    7.4576    0.2183 C.ar    1  LIG1        0.0706
     32 S          -2.8902    5.7764   -0.1828 S.2     1  LIG1       -0.0820
     33 C           0.3576    6.5476    1.9433 C.1     1  LIG1       -0.0648
     34 C           1.3498    6.4938    2.6186 C.1     1  LIG1       -0.1138
     35 H           2.2315    6.4324    3.2131 H       1  LIG1        0.1232
     36 O          -1.4031    8.9813    1.3861 O.3     1  LIG1       -0.4927
     37 C          -0.0914    9.5076    1.1681 C.3     1  LIG1        0.0789
     38 H          -0.2023   10.5887    1.1915 H       1  LIG1        0.0660
     39 H           0.5820    9.1724    1.9537 H       1  LIG1        0.0660
     40 H           0.2798    9.1928    0.1918 H       1  LIG1        0.0660
     41 C          -3.8447    8.4006   -0.1636 C.ar    1  LIG1        0.0485
     42 C          -3.6974    9.6193   -0.7717 C.ar    1  LIG1        0.0816
     43 C          -4.9706   10.2638   -1.0042 C.ar    1  LIG1        0.1430
     44 C          -6.0243    9.5237   -0.5756 C.ar    1  LIG1        0.0193
     45 S          -5.5095    8.0385    0.1249 S.2     1  LIG1       -0.0910
     46 H          -7.0672    9.7810   -0.6550 H       1  LIG1        0.0731
     47 C          -2.4567   10.1815   -1.2185 C.1     1  LIG1       -0.0648
     48 C          -1.4456   10.6858   -1.6304 C.1     1  LIG1       -0.1138
     49 H          -0.5526   11.1264   -2.0091 H       1  LIG1        0.1232
     50 O          -5.0894   11.4697   -1.6206 O.3     1  LIG1       -0.4933
     51 C          -4.7329   12.5752   -0.7893 C.3     1  LIG1        0.0789
     52 H          -4.8633   13.4660   -1.3982 H       1  LIG1        0.0660
     53 H          -5.3918   12.6113    0.0808 H       1  LIG1        0.0660
     54 H          -3.6941   12.4889   -0.4682 H       1  LIG1        0.0660
@<TRIPOS>BOND
     1    12    11    1
     2    27    24    1
     3    49    48    1
     4    26    24    1
     5    14    11    1
     6    25    24    1
     7    48    47    3
     8    50    43    1
     9    50    51    1
    10    24    23    1
    11    11    10    1
    12    11    13    1
    13    52    51    1
    14    47    42    1
    15    10     3    1
    16     9     8    1
    17    43    42   ar
    18    43    44   ar
    19    51    54    1
    20    51    53    1
    21    42    41   ar
    22    46    44    1
    23    44    45   ar
    24     8     7    3
    25    22    21    1
    26    32    31   ar
    27    32    28   ar
    28    23    17    1
    29    41    45   ar
    30    41    31    1
    31    21    20    3
    32     7     2    1
    33    20    16    1
    34    40    37    1
    35     3     2   ar
    36     3     4   ar
    37    31    30   ar
    38    17    16   ar
    39    17    18   ar
    40    16    15   ar
    41    28    18    1
    42    28    29   ar
    43    18    19   ar
    44     2     1   ar
    45    15     4    1
    46    15    19   ar
    47    30    29   ar
    48    30    36    1
    49     4     5   ar
    50    29    33    1
    51    37    38    1
    52    37    36    1
    53    37    39    1
    54    33    34    3
    55     1     5   ar
    56     1     6    1
    57    34    35    1
