@<TRIPOS>MOLECULE
mol_data/opt/m06hf/geoms/mol2/5el5el5el-.out
 41 43 0 0 0
SMALL
GASTEIGER

@<TRIPOS>ATOM
      1 C          -1.9469   -1.8864    1.3887 C.ar    1  LIG1       -0.0047
      2 C          -0.9198   -2.0627    0.5064 C.ar    1  LIG1        0.0739
      3 C          -0.3603   -0.7988    0.0760 C.ar    1  LIG1        0.1506
      4 C          -0.9892    0.2700    0.6513 C.ar    1  LIG1        0.0700
      5 S          -2.2603   -0.2368    1.7110 S.2     1  LIG1       -0.0911
      6 H          -2.5345   -2.6633    1.8495 H       1  LIG1        0.0707
      7 C          -0.5133   -3.3568    0.0304 C.1     1  LIG1       -0.0654
      8 C          -0.1960   -4.4494   -0.3572 C.1     1  LIG1       -0.1138
      9 H           0.0815   -5.4170   -0.7063 H       1  LIG1        0.1232
     10 O           0.6199   -0.6430   -0.8380 O.3     1  LIG1       -0.4927
     11 C           1.8135   -1.4047   -0.6371 C.3     1  LIG1        0.0789
     12 H           2.5943   -0.8747   -1.1762 H       1  LIG1        0.0660
     13 H           2.0569   -1.4423    0.4257 H       1  LIG1        0.0660
     14 H           1.6871   -2.4103   -1.0320 H       1  LIG1        0.0660
     15 C          -0.7032    1.6836    0.4090 C.ar    1  LIG1        0.0491
     16 C           0.5149    2.3113    0.4136 C.ar    1  LIG1        0.0823
     17 C           0.4018    3.7172    0.1135 C.ar    1  LIG1        0.1513
     18 C          -0.8841    4.1184   -0.1019 C.ar    1  LIG1        0.0706
     19 S          -1.9837    2.7911    0.0551 S.2     1  LIG1       -0.0820
     20 C           1.7742    1.7052    0.7326 C.1     1  LIG1       -0.0648
     21 C           2.8540    1.2577    1.0145 C.1     1  LIG1       -0.1138
     22 H           3.8087    0.8664    1.2798 H       1  LIG1        0.1232
     23 O           1.4758    4.5396    0.0431 O.3     1  LIG1       -0.4927
     24 C           2.1423    4.4855   -1.2209 C.3     1  LIG1        0.0789
     25 H           2.9900    5.1613   -1.1430 H       1  LIG1        0.0660
     26 H           2.4875    3.4697   -1.4202 H       1  LIG1        0.0660
     27 H           1.4640    4.8155   -2.0102 H       1  LIG1        0.0660
     28 C          -1.3251    5.4738   -0.4321 C.ar    1  LIG1        0.0485
     29 C          -0.9816    6.6359    0.2067 C.ar    1  LIG1        0.0816
     30 C          -1.5957    7.7901   -0.4120 C.ar    1  LIG1        0.1430
     31 C          -2.3707    7.4683   -1.4790 C.ar    1  LIG1        0.0193
     32 S          -2.3820    5.7717   -1.7666 S.2     1  LIG1       -0.0910
     33 H          -2.9411    8.1503   -2.0872 H       1  LIG1        0.0731
     34 C          -0.1791    6.7141    1.3921 C.1     1  LIG1       -0.0648
     35 C           0.4883    6.7920    2.3885 C.1     1  LIG1       -0.1138
     36 H           1.0748    6.8426    3.2766 H       1  LIG1        0.1232
     37 O          -1.4347    9.0571    0.0526 O.3     1  LIG1       -0.4933
     38 C          -0.1391    9.6021   -0.2026 C.3     1  LIG1        0.0789
     39 H          -0.1406   10.5984    0.2317 H       1  LIG1        0.0660
     40 H           0.6304    8.9894    0.2682 H       1  LIG1        0.0660
     41 H           0.0319    9.6601   -1.2796 H       1  LIG1        0.0660
@<TRIPOS>BOND
     1    33    31    1
     2    27    24    1
     3    32    31   ar
     4    32    28   ar
     5    31    30   ar
     6    26    24    1
     7    41    38    1
     8    24    25    1
     9    24    23    1
    10    12    11    1
    11    14    11    1
    12    10    11    1
    13    10     3    1
    14     9     8    1
    15    11    13    1
    16    28    18    1
    17    28    29   ar
    18    30    37    1
    19    30    29   ar
    20     8     7    3
    21    38    37    1
    22    38    39    1
    23    38    40    1
    24    18    19   ar
    25    18    17   ar
    26     7     2    1
    27    23    17    1
    28    19    15   ar
    29     3     2   ar
    30     3     4   ar
    31    17    16   ar
    32    29    34    1
    33    15    16   ar
    34    15     4    1
    35    16    20    1
    36     2     1   ar
    37     4     5   ar
    38    20    21    3
    39    21    22    1
    40     1     5   ar
    41     1     6    1
    42    34    35    3
    43    35    36    1
