@<TRIPOS>MOLECULE
mol_data/opt/m06hf/geoms/mol2/5el5el.out
 28 29 0 0 0
SMALL
GASTEIGER

@<TRIPOS>ATOM
      1 C          -2.1165   -1.8925    0.6791 C.ar    1  LIG1       -0.0047
      2 C          -0.8912   -2.0007    0.0864 C.ar    1  LIG1        0.0739
      3 C          -0.3176   -0.7022   -0.1982 C.ar    1  LIG1        0.1506
      4 C          -1.1348    0.3224    0.1892 C.ar    1  LIG1        0.0700
      5 S          -2.5997   -0.2664    0.8970 S.2     1  LIG1       -0.0911
      6 H          -2.7545   -2.7068    0.9803 H       1  LIG1        0.0707
      7 C          -0.3057   -3.2678   -0.2594 C.1     1  LIG1       -0.0654
      8 C           0.1529   -4.3426   -0.5426 C.1     1  LIG1       -0.1138
      9 H           0.5523   -5.2964   -0.8010 H       1  LIG1        0.1232
     10 O           0.8505   -0.4742   -0.8335 O.3     1  LIG1       -0.4927
     11 C           1.9945   -1.1973   -0.3731 C.3     1  LIG1        0.0789
     12 H           2.8557   -0.6040   -0.6706 H       1  LIG1        0.0660
     13 H           1.9650   -1.2897    0.7138 H       1  LIG1        0.0660
     14 H           2.0271   -2.1820   -0.8345 H       1  LIG1        0.0660
     15 C          -0.8687    1.7524    0.0359 C.ar    1  LIG1        0.0484
     16 C           0.2610    2.4369    0.3978 C.ar    1  LIG1        0.0816
     17 C           0.1623    3.8456    0.0853 C.ar    1  LIG1        0.1430
     18 C          -1.0201    4.1767   -0.4912 C.ar    1  LIG1        0.0193
     19 S          -2.0397    2.8016   -0.6782 S.2     1  LIG1       -0.0910
     20 H          -1.3329    5.1610   -0.7963 H       1  LIG1        0.0731
     21 C           1.3885    1.8697    1.0780 C.1     1  LIG1       -0.0648
     22 C           2.3471    1.4406    1.6642 C.1     1  LIG1       -0.1138
     23 H           3.1902    1.0640    2.1956 H       1  LIG1        0.1232
     24 O           1.1429    4.7415    0.3746 O.3     1  LIG1       -0.4933
     25 C           2.2774    4.6462   -0.4882 C.3     1  LIG1        0.0789
     26 H           2.9824    5.3979   -0.1428 H       1  LIG1        0.0660
     27 H           2.7231    3.6531   -0.4194 H       1  LIG1        0.0660
     28 H           1.9771    4.8529   -1.5173 H       1  LIG1        0.0660
@<TRIPOS>BOND
     1    28    25    1
     2    14    11    1
     3    10    11    1
     4    10     3    1
     5     9     8    1
     6    20    18    1
     7    19    18   ar
     8    19    15   ar
     9    12    11    1
    10     8     7    3
    11    18    17   ar
    12    25    27    1
    13    25    26    1
    14    25    24    1
    15    11    13    1
    16     7     2    1
    17     3     2   ar
    18     3     4   ar
    19    15     4    1
    20    15    16   ar
    21    17    24    1
    22    17    16   ar
    23     2     1   ar
    24     4     5   ar
    25    16    21    1
    26     1     5   ar
    27     1     6    1
    28    21    22    3
    29    22    23    1
