@<TRIPOS>MOLECULE
mol_data/opt/m06hf/geoms/mol2/5el5el-5el5el-.out
 54 57 0 0 0
SMALL
GASTEIGER

@<TRIPOS>ATOM
      1 C          -1.3625   -1.8276    2.2941 C.ar    1  LIG1       -0.0047
      2 C          -0.7796   -2.0318    1.0758 C.ar    1  LIG1        0.0739
      3 C          -0.3898   -0.7840    0.4531 C.ar    1  LIG1        0.1506
      4 C          -0.6961    0.3001    1.2276 C.ar    1  LIG1        0.0700
      5 S          -1.4581   -0.1715    2.7085 S.2     1  LIG1       -0.0911
      6 H          -1.7479   -2.5877    2.9539 H       1  LIG1        0.0707
      7 C          -0.6476   -3.3371    0.4880 C.1     1  LIG1       -0.0654
      8 C          -0.5590   -4.4415    0.0223 C.1     1  LIG1       -0.1138
      9 H          -0.4874   -5.4211   -0.3904 H       1  LIG1        0.1232
     10 O           0.1469   -0.6476   -0.7770 O.3     1  LIG1       -0.4927
     11 C           1.2729   -1.4711   -1.0896 C.3     1  LIG1        0.0789
     12 H           1.7839   -0.9683   -1.9067 H       1  LIG1        0.0660
     13 H           1.9347   -1.5415   -0.2251 H       1  LIG1        0.0660
     14 H           0.9418   -2.4613   -1.3953 H       1  LIG1        0.0660
     15 C          -0.4695    1.7032    0.8849 C.ar    1  LIG1        0.0491
     16 C           0.6847    2.2786    0.4217 C.ar    1  LIG1        0.0823
     17 C           0.5263    3.6908    0.1799 C.ar    1  LIG1        0.1513
     18 C          -0.7273    4.1471    0.4686 C.ar    1  LIG1        0.0706
     19 S          -1.7411    2.8627    1.0361 S.2     1  LIG1       -0.0820
     20 C           1.9389    1.6108    0.2325 C.1     1  LIG1       -0.0648
     21 C           3.0188    1.1080    0.0707 C.1     1  LIG1       -0.1138
     22 H           3.9798    0.6670   -0.0610 H       1  LIG1        0.1232
     23 O           1.5244    4.4713   -0.2981 O.3     1  LIG1       -0.4927
     24 C           1.6646    4.4010   -1.7198 C.3     1  LIG1        0.0789
     25 H           2.4776    5.0755   -1.9747 H       1  LIG1        0.0660
     26 H           1.9093    3.3821   -2.0236 H       1  LIG1        0.0660
     27 H           0.7381    4.7253   -2.1978 H       1  LIG1        0.0660
     28 C          -1.2058    5.5187    0.2986 C.ar    1  LIG1        0.0491
     29 C          -0.5934    6.6703    0.7186 C.ar    1  LIG1        0.0823
     30 C          -1.3346    7.8467    0.3310 C.ar    1  LIG1        0.1513
     31 C          -2.4770    7.5582   -0.3572 C.ar    1  LIG1        0.0706
     32 S          -2.6767    5.8479   -0.5475 S.2     1  LIG1       -0.0820
     33 C           0.6128    6.7337    1.4895 C.1     1  LIG1       -0.0648
     34 C           1.6243    6.8072    2.1333 C.1     1  LIG1       -0.1138
     35 H           2.5225    6.8557    2.7038 H       1  LIG1        0.1232
     36 O          -0.9215    9.1048    0.6146 O.3     1  LIG1       -0.4927
     37 C           0.1305    9.5591   -0.2409 C.3     1  LIG1        0.0789
     38 H           0.3760   10.5637    0.0929 H       1  LIG1        0.0660
     39 H           1.0002    8.9072   -0.1475 H       1  LIG1        0.0660
     40 H          -0.2207    9.5787   -1.2746 H       1  LIG1        0.0660
     41 C          -3.4355    8.5228   -0.8968 C.ar    1  LIG1        0.0485
     42 C          -4.0012    9.5875   -0.2464 C.ar    1  LIG1        0.0816
     43 C          -4.8993   10.3263   -1.1073 C.ar    1  LIG1        0.1430
     44 C          -4.9844    9.8038   -2.3563 C.ar    1  LIG1        0.0193
     45 S          -3.9855    8.4128   -2.5323 S.2     1  LIG1       -0.0910
     46 H          -5.5981   10.1665   -3.1637 H       1  LIG1        0.0731
     47 C          -3.8070    9.9024    1.1381 C.1     1  LIG1       -0.0648
     48 C          -3.6590   10.1789    2.2979 C.1     1  LIG1       -0.1138
     49 H          -3.5208   10.4103    3.3284 H       1  LIG1        0.1232
     50 O          -5.6074   11.4089   -0.6908 O.3     1  LIG1       -0.4933
     51 C          -4.8109   12.5808   -0.5083 C.3     1  LIG1        0.0789
     52 H          -5.4900   13.3561   -0.1639 H       1  LIG1        0.0660
     53 H          -4.0369   12.4010    0.2389 H       1  LIG1        0.0660
     54 H          -4.3576   12.8700   -1.4586 H       1  LIG1        0.0660
@<TRIPOS>BOND
     1    46    44    1
     2    45    44   ar
     3    45    41   ar
     4    44    43   ar
     5    27    24    1
     6    26    24    1
     7    25    24    1
     8    12    11    1
     9    24    23    1
    10    54    51    1
    11    14    11    1
    12    40    37    1
    13    43    50    1
    14    43    42   ar
    15    11    10    1
    16    11    13    1
    17    41    31    1
    18    41    42   ar
    19    10     3    1
    20    50    51    1
    21    32    31   ar
    22    32    28   ar
    23    51    52    1
    24    51    53    1
    25     9     8    1
    26    31    30   ar
    27    23    17    1
    28    42    47    1
    29    37    39    1
    30    37    38    1
    31    37    36    1
    32    22    21    1
    33     8     7    3
    34    21    20    3
    35    17    16   ar
    36    17    18   ar
    37    20    16    1
    38    28    18    1
    39    28    29   ar
    40    30    36    1
    41    30    29   ar
    42    16    15   ar
    43     3     2   ar
    44     3     4   ar
    45    18    19   ar
    46     7     2    1
    47    29    33    1
    48    15    19   ar
    49    15     4    1
    50     2     1   ar
    51    47    48    3
    52     4     5   ar
    53    33    34    3
    54    34    35    1
    55     1     5   ar
    56     1     6    1
    57    48    49    1
