@<TRIPOS>MOLECULE
mol_data/opt/m06hf/geoms/mol2/5el5el5el5el.out
 54 57 0 0 0
SMALL
GASTEIGER

@<TRIPOS>ATOM
      1 C          -2.0526   -2.1470    0.3357 C.ar    1  LIG1       -0.0047
      2 C          -0.8088   -2.1227   -0.2288 C.ar    1  LIG1        0.0739
      3 C          -0.2702   -0.7805   -0.2777 C.ar    1  LIG1        0.1506
      4 C          -1.1289    0.1428    0.2501 C.ar    1  LIG1        0.0700
      5 S          -2.5921   -0.5950    0.8060 S.2     1  LIG1       -0.0911
      6 H          -2.6722   -3.0168    0.4812 H       1  LIG1        0.0707
      7 C          -0.1719   -3.2983   -0.7575 C.1     1  LIG1       -0.0654
      8 C           0.3322   -4.2981   -1.1948 C.1     1  LIG1       -0.1138
      9 H           0.7759   -5.1833   -1.5888 H       1  LIG1        0.1232
     10 O           0.9034   -0.4182   -0.8348 O.3     1  LIG1       -0.4927
     11 C           2.0608   -1.1726   -0.4667 C.3     1  LIG1        0.0789
     12 H           2.9058   -0.5052   -0.6158 H       1  LIG1        0.0660
     13 H           1.9991   -1.4659    0.5823 H       1  LIG1        0.0660
     14 H           2.1503   -2.0536   -1.0989 H       1  LIG1        0.0660
     15 C          -0.9071    1.5859    0.3277 C.ar    1  LIG1        0.0491
     16 C           0.2003    2.2334    0.8161 C.ar    1  LIG1        0.0823
     17 C           0.0738    3.6696    0.7204 C.ar    1  LIG1        0.1513
     18 C          -1.1212    4.0573    0.1813 C.ar    1  LIG1        0.0706
     19 S          -2.0986    2.6914   -0.2389 S.2     1  LIG1       -0.0820
     20 C           1.2916    1.5585    1.4583 C.1     1  LIG1       -0.0648
     21 C           2.1938    1.0069    2.0311 C.1     1  LIG1       -0.1138
     22 H           2.9862    0.5207    2.5518 H       1  LIG1        0.1232
     23 O           0.9702    4.5693    1.1727 O.3     1  LIG1       -0.4927
     24 C           2.3353    4.3832    0.7912 C.3     1  LIG1        0.0789
     25 H           2.7778    5.3764    0.7831 H       1  LIG1        0.0660
     26 H           2.8397    3.7432    1.5118 H       1  LIG1        0.0660
     27 H           2.3895    3.9440   -0.2060 H       1  LIG1        0.0660
     28 C          -1.5797    5.4295   -0.0239 C.ar    1  LIG1        0.0491
     29 C          -0.8986    6.4543   -0.6316 C.ar    1  LIG1        0.0823
     30 C          -1.6701    7.6760   -0.6592 C.ar    1  LIG1        0.1513
     31 C          -2.9039    7.5329   -0.0894 C.ar    1  LIG1        0.0706
     32 S          -3.1398    5.9275    0.5110 S.2     1  LIG1       -0.0820
     33 C           0.3709    6.2868   -1.2787 C.1     1  LIG1       -0.0648
     34 C           1.4173    6.1500   -1.8555 C.1     1  LIG1       -0.1138
     35 H           2.3371    6.0266   -2.3789 H       1  LIG1        0.1232
     36 O          -1.2859    8.8263   -1.2516 O.3     1  LIG1       -0.4927
     37 C          -0.0179    9.3584   -0.8571 C.3     1  LIG1        0.0789
     38 H          -0.0597   10.4192   -1.0907 H       1  LIG1        0.0660
     39 H           0.1265    9.2201    0.2152 H       1  LIG1        0.0660
     40 H           0.7815    8.8732   -1.4132 H       1  LIG1        0.0660
     41 C          -3.9549    8.5470   -0.0145 C.ar    1  LIG1        0.0485
     42 C          -3.8459    9.8491    0.3959 C.ar    1  LIG1        0.0816
     43 C          -5.1076   10.5504    0.3074 C.ar    1  LIG1        0.1430
     44 C          -6.1158    9.7691   -0.1545 C.ar    1  LIG1        0.0193
     45 S          -5.5707    8.1736   -0.5004 S.2     1  LIG1       -0.0910
     46 H          -7.1447   10.0579   -0.2893 H       1  LIG1        0.0731
     47 C          -2.6675   10.4585    0.9403 C.1     1  LIG1       -0.0648
     48 C          -1.7204   11.0165    1.4285 C.1     1  LIG1       -0.1138
     49 H          -0.8865   11.5050    1.8770 H       1  LIG1        0.1232
     50 O          -5.2615   11.8491    0.6790 O.3     1  LIG1       -0.4933
     51 C          -4.7076   12.7777   -0.2545 C.3     1  LIG1        0.0789
     52 H          -4.8853   13.7660    0.1615 H       1  LIG1        0.0660
     53 H          -3.6367   12.6073   -0.3694 H       1  LIG1        0.0660
     54 H          -5.2089   12.6765   -1.2189 H       1  LIG1        0.0660
@<TRIPOS>BOND
     1    35    34    1
     2    34    33    3
     3     9     8    1
     4    40    37    1
     5    33    29    1
     6    36    37    1
     7    36    30    1
     8    54    51    1
     9     8     7    3
    10    14    11    1
    11    38    37    1
    12    37    39    1
    13    10    11    1
    14    10     3    1
    15     7     2    1
    16    30    29   ar
    17    30    31   ar
    18    29    28   ar
    19    12    11    1
    20    45    44   ar
    21    45    41   ar
    22    11    13    1
    23    53    51    1
    24    46    44    1
    25     3     2   ar
    26     3     4   ar
    27    51    52    1
    28    51    50    1
    29    19    18   ar
    30    19    15   ar
    31     2     1   ar
    32    27    24    1
    33    44    43   ar
    34    31    41    1
    35    31    32   ar
    36    28    18    1
    37    28    32   ar
    38    41    42   ar
    39    18    17   ar
    40     4    15    1
    41     4     5   ar
    42    43    42   ar
    43    43    50    1
    44    15    16   ar
    45     1     6    1
    46     1     5   ar
    47    42    47    1
    48    17    16   ar
    49    17    23    1
    50    25    24    1
    51    24    23    1
    52    24    26    1
    53    16    20    1
    54    47    48    3
    55    48    49    1
    56    20    21    3
    57    21    22    1
