@<TRIPOS>MOLECULE
mol_data/opt/m06hf/geoms/mol2/5el5el5el.out
 41 43 0 0 0
SMALL
GASTEIGER

@<TRIPOS>ATOM
      1 C          -2.0512   -2.0485    0.6308 C.ar    1  LIG1       -0.0047
      2 C          -0.8907   -2.0454   -0.0898 C.ar    1  LIG1        0.0739
      3 C          -0.3395   -0.7124   -0.2098 C.ar    1  LIG1        0.1506
      4 C          -1.1069    0.2254    0.4238 C.ar    1  LIG1        0.0700
      5 S          -2.4980   -0.4871    1.1653 S.2     1  LIG1       -0.0911
      6 H          -2.6612   -2.9079    0.8565 H       1  LIG1        0.0707
      7 C          -0.3482   -3.2325   -0.6931 C.1     1  LIG1       -0.0654
      8 C           0.0786   -4.2400   -1.1914 C.1     1  LIG1       -0.1138
      9 H           0.4523   -5.1317   -1.6396 H       1  LIG1        0.1232
     10 O           0.7575   -0.3659   -0.9129 O.3     1  LIG1       -0.4927
     11 C           1.9313   -1.1605   -0.7315 C.3     1  LIG1        0.0789
     12 H           2.7681   -0.5074   -0.9667 H       1  LIG1        0.0660
     13 H           2.0012   -1.4955    0.3046 H       1  LIG1        0.0660
     14 H           1.9114   -2.0165   -1.4026 H       1  LIG1        0.0660
     15 C          -0.8524    1.6643    0.4685 C.ar    1  LIG1        0.0491
     16 C           0.3202    2.2931    0.8024 C.ar    1  LIG1        0.0823
     17 C           0.2065    3.7316    0.7206 C.ar    1  LIG1        0.1513
     18 C          -1.0427    4.1407    0.3468 C.ar    1  LIG1        0.0706
     19 S          -2.0896    2.7926    0.0616 S.2     1  LIG1       -0.0820
     20 C           1.4749    1.6007    1.2985 C.1     1  LIG1       -0.0648
     21 C           2.4326    1.0296    1.7493 C.1     1  LIG1       -0.1138
     22 H           3.2755    0.5268    2.1641 H       1  LIG1        0.1232
     23 O           1.1792    4.6073    1.0522 O.3     1  LIG1       -0.4927
     24 C           2.4347    4.4441    0.3851 C.3     1  LIG1        0.0789
     25 H           2.9414    5.4012    0.4780 H       1  LIG1        0.0660
     26 H           3.0120    3.6540    0.8607 H       1  LIG1        0.0660
     27 H           2.2666    4.2135   -0.6675 H       1  LIG1        0.0660
     28 C          -1.5169    5.5206    0.2404 C.ar    1  LIG1        0.0485
     29 C          -0.9328    6.5682   -0.4211 C.ar    1  LIG1        0.0816
     30 C          -1.6952    7.7893   -0.2793 C.ar    1  LIG1        0.1430
     31 C          -2.8178    7.6277    0.4652 C.ar    1  LIG1        0.0193
     32 S          -2.9797    6.0081    1.0225 S.2     1  LIG1       -0.0910
     33 H          -3.5504    8.3830    0.6954 H       1  LIG1        0.0731
     34 C           0.2439    6.4864   -1.2369 C.1     1  LIG1       -0.0648
     35 C           1.2107    6.4704   -1.9522 C.1     1  LIG1       -0.1138
     36 H           2.0572    6.4508   -2.5989 H       1  LIG1        0.1232
     37 O          -1.3304    8.9641   -0.8578 O.3     1  LIG1       -0.4933
     38 C          -0.2136    9.5886   -0.2219 C.3     1  LIG1        0.0789
     39 H          -0.0205   10.5017   -0.7788 H       1  LIG1        0.0660
     40 H          -0.4632    9.8229    0.8149 H       1  LIG1        0.0660
     41 H           0.6589    8.9350   -0.2590 H       1  LIG1        0.0660
@<TRIPOS>BOND
     1    36    35    1
     2    35    34    3
     3     9     8    1
     4    14    11    1
     5    34    29    1
     6     8     7    3
     7    12    11    1
     8    10    11    1
     9    10     3    1
    10    37    30    1
    11    37    38    1
    12    39    38    1
    13    11    13    1
    14     7     2    1
    15    27    24    1
    16    29    30   ar
    17    29    28   ar
    18    30    31   ar
    19    41    38    1
    20    38    40    1
    21     3     2   ar
    22     3     4   ar
    23     2     1   ar
    24    19    18   ar
    25    19    15   ar
    26    28    18    1
    27    28    32   ar
    28    18    17   ar
    29    24    25    1
    30    24    26    1
    31    24    23    1
    32     4    15    1
    33     4     5   ar
    34    31    33    1
    35    31    32   ar
    36    15    16   ar
    37     1     6    1
    38     1     5   ar
    39    17    16   ar
    40    17    23    1
    41    16    20    1
    42    20    21    3
    43    21    22    1
