@<TRIPOS>MOLECULE
mol_data/opt/m06hf/geoms/mol2/5el5el5el5el-.out
 54 57 0 0 0
SMALL
GASTEIGER

@<TRIPOS>ATOM
      1 C          -2.0111   -2.1492    0.4061 C.ar    1  LIG1       -0.0047
      2 C          -0.7833   -2.1233   -0.1925 C.ar    1  LIG1        0.0739
      3 C          -0.2523   -0.7792   -0.2649 C.ar    1  LIG1        0.1506
      4 C          -1.1004    0.1439    0.2802 C.ar    1  LIG1        0.0700
      5 S          -2.5445   -0.5964    0.8808 S.2     1  LIG1       -0.0911
      6 H          -2.6226   -3.0206    0.5742 H       1  LIG1        0.0707
      7 C          -0.1560   -3.2996   -0.7308 C.1     1  LIG1       -0.0654
      8 C           0.3404   -4.3001   -1.1751 C.1     1  LIG1       -0.1138
      9 H           0.7771   -5.1860   -1.5754 H       1  LIG1        0.1232
     10 O           0.9039   -0.4155   -0.8564 O.3     1  LIG1       -0.4927
     11 C           2.0744   -1.1625   -0.5153 C.3     1  LIG1        0.0789
     12 H           2.9120   -0.4924   -0.6917 H       1  LIG1        0.0660
     13 H           2.0427   -1.4492    0.5369 H       1  LIG1        0.0660
     14 H           2.1505   -2.0473   -1.1439 H       1  LIG1        0.0660
     15 C          -0.8830    1.5885    0.3421 C.ar    1  LIG1        0.0491
     16 C           0.2345    2.2440    0.7957 C.ar    1  LIG1        0.0823
     17 C           0.0990    3.6790    0.6940 C.ar    1  LIG1        0.1513
     18 C          -1.1121    4.0579    0.1853 C.ar    1  LIG1        0.0706
     19 S          -2.0945    2.6850   -0.1990 S.2     1  LIG1       -0.0820
     20 C           1.3460    1.5782    1.4122 C.1     1  LIG1       -0.0648
     21 C           2.2660    1.0343    1.9636 C.1     1  LIG1       -0.1138
     22 H           3.0744    0.5550    2.4656 H       1  LIG1        0.1232
     23 O           1.0034    4.5856    1.1155 O.3     1  LIG1       -0.4927
     24 C           2.3584    4.4028    0.6980 C.3     1  LIG1        0.0789
     25 H           2.7961    5.3977    0.6712 H       1  LIG1        0.0660
     26 H           2.8851    3.7698    1.4088 H       1  LIG1        0.0660
     27 H           2.3872    3.9571   -0.2974 H       1  LIG1        0.0660
     28 C          -1.5821    5.4267   -0.0163 C.ar    1  LIG1        0.0491
     29 C          -0.9226    6.4503   -0.6492 C.ar    1  LIG1        0.0823
     30 C          -1.7000    7.6685   -0.6637 C.ar    1  LIG1        0.1513
     31 C          -2.9171    7.5240   -0.0593 C.ar    1  LIG1        0.0706
     32 S          -3.1292    5.9217    0.5579 S.2     1  LIG1       -0.0820
     33 C           0.3294    6.2839   -1.3297 C.1     1  LIG1       -0.0648
     34 C           1.3603    6.1477   -1.9340 C.1     1  LIG1       -0.1138
     35 H           2.2659    6.0248   -2.4816 H       1  LIG1        0.1232
     36 O          -1.3373    8.8164   -1.2741 O.3     1  LIG1       -0.4927
     37 C          -0.0614    9.3567   -0.9179 C.3     1  LIG1        0.0789
     38 H          -0.1143   10.4157   -1.1573 H       1  LIG1        0.0660
     39 H           0.1130    9.2261    0.1508 H       1  LIG1        0.0660
     40 H           0.7247    8.8711   -1.4926 H       1  LIG1        0.0660
     41 C          -3.9702    8.5339    0.0376 C.ar    1  LIG1        0.0485
     42 C          -3.8558    9.8392    0.4363 C.ar    1  LIG1        0.0816
     43 C          -5.1226   10.5345    0.3776 C.ar    1  LIG1        0.1430
     44 C          -6.1396    9.7458   -0.0514 C.ar    1  LIG1        0.0193
     45 S          -5.5969    8.1504   -0.4014 S.2     1  LIG1       -0.0910
     46 H          -7.1731   10.0292   -0.1598 H       1  LIG1        0.0731
     47 C          -2.6658   10.4574    0.9442 C.1     1  LIG1       -0.0648
     48 C          -1.7083   11.0228    1.4026 C.1     1  LIG1       -0.1138
     49 H          -0.8646   11.5179    1.8249 H       1  LIG1        0.1232
     50 O          -5.2722   11.8350    0.7447 O.3     1  LIG1       -0.4933
     51 C          -4.7481   12.7597   -0.2097 C.3     1  LIG1        0.0789
     52 H          -4.9189   13.7500    0.2045 H       1  LIG1        0.0660
     53 H          -3.6800   12.5931   -0.3527 H       1  LIG1        0.0660
     54 H          -5.2752   12.6498   -1.1593 H       1  LIG1        0.0660
@<TRIPOS>BOND
     1    35    34    1
     2    34    33    3
     3     9     8    1
     4    40    37    1
     5    33    29    1
     6    36    37    1
     7    36    30    1
     8     8     7    3
     9    54    51    1
    10    38    37    1
    11    14    11    1
    12    37    39    1
    13    10    11    1
    14    10     3    1
    15     7     2    1
    16    12    11    1
    17    30    29   ar
    18    30    31   ar
    19    29    28   ar
    20    11    13    1
    21    45    44   ar
    22    45    41   ar
    23    53    51    1
    24    27    24    1
    25     3     2   ar
    26     3     4   ar
    27    51    52    1
    28    51    50    1
    29    19    18   ar
    30    19    15   ar
    31     2     1   ar
    32    46    44    1
    33    31    41    1
    34    31    32   ar
    35    44    43   ar
    36    28    18    1
    37    28    32   ar
    38    41    42   ar
    39    18    17   ar
    40     4    15    1
    41     4     5   ar
    42    15    16   ar
    43    43    42   ar
    44    43    50    1
    45     1     6    1
    46     1     5   ar
    47    42    47    1
    48    25    24    1
    49    17    16   ar
    50    17    23    1
    51    24    23    1
    52    24    26    1
    53    16    20    1
    54    47    48    3
    55    48    49    1
    56    20    21    3
    57    21    22    1
