@<TRIPOS>MOLECULE
mol_data/opt/m06hf/geoms/mol2/5el5el-5el.out
 41 43 0 0 0
SMALL
GASTEIGER

@<TRIPOS>ATOM
      1 C          -1.9376   -1.8880    1.3931 C.ar    1  LIG1       -0.0047
      2 C          -0.9151   -2.0634    0.5052 C.ar    1  LIG1        0.0739
      3 C          -0.3585   -0.7990    0.0726 C.ar    1  LIG1        0.1506
      4 C          -0.9847    0.2692    0.6519 C.ar    1  LIG1        0.0700
      5 S          -2.2499   -0.2387    1.7180 S.2     1  LIG1       -0.0911
      6 H          -2.5224   -2.6654    1.8565 H       1  LIG1        0.0707
      7 C          -0.5106   -3.3571    0.0263 C.1     1  LIG1       -0.0654
      8 C          -0.1950   -4.4493   -0.3635 C.1     1  LIG1       -0.1138
      9 H           0.0810   -5.4166   -0.7147 H       1  LIG1        0.1232
     10 O           0.6168   -0.6423   -0.8465 O.3     1  LIG1       -0.4927
     11 C           1.8118   -1.4037   -0.6523 C.3     1  LIG1        0.0789
     12 H           2.5895   -0.8731   -1.1953 H       1  LIG1        0.0660
     13 H           2.0608   -1.4418    0.4091 H       1  LIG1        0.0660
     14 H           1.6837   -2.4091   -1.0472 H       1  LIG1        0.0660
     15 C          -0.7005    1.6831    0.4089 C.ar    1  LIG1        0.0491
     16 C           0.5174    2.3112    0.4073 C.ar    1  LIG1        0.0823
     17 C           0.4021    3.7173    0.1087 C.ar    1  LIG1        0.1513
     18 C          -0.8851    4.1181   -0.0996 C.ar    1  LIG1        0.0706
     19 S          -1.9833    2.7903    0.0625 S.2     1  LIG1       -0.0820
     20 C           1.7785    1.7054    0.7193 C.1     1  LIG1       -0.0648
     21 C           2.8600    1.2582    0.9951 C.1     1  LIG1       -0.1138
     22 H           3.8163    0.8671    1.2551 H       1  LIG1        0.1232
     23 O           1.4754    4.5401    0.0330 O.3     1  LIG1       -0.4927
     24 C           2.1351    4.4870   -1.2346 C.3     1  LIG1        0.0789
     25 H           2.9830    5.1631   -1.1608 H       1  LIG1        0.0660
     26 H           2.4797    3.4715   -1.4363 H       1  LIG1        0.0660
     27 H           1.4526    4.8172   -2.0200 H       1  LIG1        0.0660
     28 C          -1.3284    5.4735   -0.4267 C.ar    1  LIG1        0.0485
     29 C          -0.9819    6.6354    0.2109 C.ar    1  LIG1        0.0816
     30 C          -1.5997    7.7897   -0.4039 C.ar    1  LIG1        0.1430
     31 C          -2.3803    7.4682   -1.4669 C.ar    1  LIG1        0.0193
     32 S          -2.3925    5.7717   -1.7554 S.2     1  LIG1       -0.0910
     33 H          -2.9542    8.1503   -2.0716 H       1  LIG1        0.0731
     34 C          -0.1731    6.7132    1.3920 C.1     1  LIG1       -0.0648
     35 C           0.4995    6.7908    2.3850 C.1     1  LIG1       -0.1138
     36 H           1.0908    6.8411    3.2699 H       1  LIG1        0.1232
     37 O          -1.4367    9.0565    0.0606 O.3     1  LIG1       -0.4933
     38 C          -0.1428    9.6021   -0.2012 C.3     1  LIG1        0.0789
     39 H          -0.1422   10.5981    0.2336 H       1  LIG1        0.0660
     40 H           0.6295    8.9895    0.2650 H       1  LIG1        0.0660
     41 H           0.0224    9.6608   -1.2791 H       1  LIG1        0.0660
@<TRIPOS>BOND
     1    33    31    1
     2    27    24    1
     3    32    31   ar
     4    32    28   ar
     5    31    30   ar
     6    26    24    1
     7    41    38    1
     8    24    25    1
     9    24    23    1
    10    12    11    1
    11    14    11    1
    12    10    11    1
    13    10     3    1
    14     9     8    1
    15    11    13    1
    16    28    18    1
    17    28    29   ar
    18    30    37    1
    19    30    29   ar
    20     8     7    3
    21    38    37    1
    22    38    39    1
    23    38    40    1
    24    18    19   ar
    25    18    17   ar
    26     7     2    1
    27    23    17    1
    28    19    15   ar
    29     3     2   ar
    30     3     4   ar
    31    17    16   ar
    32    29    34    1
    33    16    15   ar
    34    16    20    1
    35    15     4    1
    36     2     1   ar
    37     4     5   ar
    38    20    21    3
    39    21    22    1
    40    34    35    3
    41     1     5   ar
    42     1     6    1
    43    35    36    1
