@<TRIPOS>MOLECULE
mol_data/opt/m06hf/geoms/mol2/5el5el-.out
 28 29 0 0 0
SMALL
GASTEIGER

@<TRIPOS>ATOM
      1 C          -2.1163   -1.8797    0.7168 C.ar    1  LIG1       -0.0047
      2 C          -0.8991   -1.9956    0.1090 C.ar    1  LIG1        0.0739
      3 C          -0.3250   -0.7006   -0.1907 C.ar    1  LIG1        0.1506
      4 C          -1.1339    0.3289    0.2009 C.ar    1  LIG1        0.0700
      5 S          -2.5915   -0.2508    0.9309 S.2     1  LIG1       -0.0911
      6 H          -2.7531   -2.6901    1.0311 H       1  LIG1        0.0707
      7 C          -0.3222   -3.2665   -0.2367 C.1     1  LIG1       -0.0654
      8 C           0.1293   -4.3445   -0.5194 C.1     1  LIG1       -0.1138
      9 H           0.5224   -5.3011   -0.7773 H       1  LIG1        0.1232
     10 O           0.8357   -0.4803   -0.8420 O.3     1  LIG1       -0.4927
     11 C           1.9829   -1.2047   -0.3922 C.3     1  LIG1        0.0789
     12 H           2.8423   -0.6158   -0.7035 H       1  LIG1        0.0660
     13 H           1.9668   -1.2914    0.6955 H       1  LIG1        0.0660
     14 H           2.0067   -2.1919   -0.8487 H       1  LIG1        0.0660
     15 C          -0.8651    1.7572    0.0357 C.ar    1  LIG1        0.0484
     16 C           0.2713    2.4400    0.3794 C.ar    1  LIG1        0.0816
     17 C           0.1734    3.8471    0.0597 C.ar    1  LIG1        0.1430
     18 C          -1.0150    4.1788   -0.5040 C.ar    1  LIG1        0.0193
     19 S          -2.0414    2.8060   -0.6701 S.2     1  LIG1       -0.0910
     20 H          -1.3284    5.1623   -0.8111 H       1  LIG1        0.0731
     21 C           1.4053    1.8728    1.0488 C.1     1  LIG1       -0.0648
     22 C           2.3696    1.4436    1.6254 C.1     1  LIG1       -0.1138
     23 H           3.2180    1.0671    2.1485 H       1  LIG1        0.1232
     24 O           1.1605    4.7414    0.3314 O.3     1  LIG1       -0.4933
     25 C           2.2838    4.6371   -0.5448 C.3     1  LIG1        0.0789
     26 H           2.9956    5.3883   -0.2127 H       1  LIG1        0.0660
     27 H           2.7270    3.6429   -0.4757 H       1  LIG1        0.0660
     28 H           1.9715    4.8388   -1.5714 H       1  LIG1        0.0660
@<TRIPOS>BOND
     1    28    25    1
     2    14    11    1
     3    10    11    1
     4    10     3    1
     5    20    18    1
     6     9     8    1
     7    12    11    1
     8    19    18   ar
     9    19    15   ar
    10    25    27    1
    11    25    26    1
    12    25    24    1
    13     8     7    3
    14    18    17   ar
    15    11    13    1
    16     7     2    1
    17     3     2   ar
    18     3     4   ar
    19    15     4    1
    20    15    16   ar
    21    17    24    1
    22    17    16   ar
    23     2     1   ar
    24     4     5   ar
    25    16    21    1
    26     1     5   ar
    27     1     6    1
    28    21    22    3
    29    22    23    1
