@<TRIPOS>MOLECULE
mol_data/opt/m06hf/geoms/mol2/5el5el-5el5el.out
 54 57 0 0 0
SMALL
GASTEIGER

@<TRIPOS>ATOM
      1 C          -1.2942   -1.8304    2.3031 C.ar    1  LIG1       -0.0047
      2 C          -0.7200   -2.0303    1.0799 C.ar    1  LIG1        0.0739
      3 C          -0.3445   -0.7797    0.4542 C.ar    1  LIG1        0.1506
      4 C          -0.6522    0.3021    1.2313 C.ar    1  LIG1        0.0700
      5 S          -1.3983   -0.1751    2.7185 S.2     1  LIG1       -0.0911
      6 H          -1.6685   -2.5933    2.9660 H       1  LIG1        0.0707
      7 C          -0.5834   -3.3346    0.4909 C.1     1  LIG1       -0.0654
      8 C          -0.4905   -4.4383    0.0244 C.1     1  LIG1       -0.1138
      9 H          -0.4151   -5.4173   -0.3890 H       1  LIG1        0.1232
     10 O           0.1809   -0.6392   -0.7803 O.3     1  LIG1       -0.4927
     11 C           1.3102   -1.4547   -1.1025 C.3     1  LIG1        0.0789
     12 H           1.8105   -0.9483   -1.9239 H       1  LIG1        0.0660
     13 H           1.9798   -1.5202   -0.2437 H       1  LIG1        0.0660
     14 H           0.9837   -2.4472   -1.4053 H       1  LIG1        0.0660
     15 C          -0.4388    1.7069    0.8868 C.ar    1  LIG1        0.0491
     16 C           0.7072    2.2907    0.4139 C.ar    1  LIG1        0.0823
     17 C           0.5365    3.7017    0.1735 C.ar    1  LIG1        0.1513
     18 C          -0.7180    4.1488    0.4727 C.ar    1  LIG1        0.0706
     19 S          -1.7176    2.8570    1.0484 S.2     1  LIG1       -0.0820
     20 C           1.9646    1.6321    0.2142 C.1     1  LIG1       -0.0648
     21 C           3.0468    1.1371    0.0432 C.1     1  LIG1       -0.1138
     22 H           4.0098    0.7031   -0.0965 H       1  LIG1        0.1232
     23 O           1.5248    4.4895   -0.3128 O.3     1  LIG1       -0.4927
     24 C           1.6537    4.4200   -1.7357 C.3     1  LIG1        0.0789
     25 H           2.4596    5.1005   -1.9973 H       1  LIG1        0.0660
     26 H           1.9035    3.4030   -2.0415 H       1  LIG1        0.0660
     27 H           0.7210    4.7374   -2.2060 H       1  LIG1        0.0660
     28 C          -1.2079    5.5168    0.3067 C.ar    1  LIG1        0.0491
     29 C          -0.6006    6.6730    0.7218 C.ar    1  LIG1        0.0823
     30 C          -1.3536    7.8439    0.3403 C.ar    1  LIG1        0.1513
     31 C          -2.4993    7.5470   -0.3386 C.ar    1  LIG1        0.0706
     32 S          -2.6880    5.8352   -0.5274 S.2     1  LIG1       -0.0820
     33 C           0.6113    6.7452    1.4829 C.1     1  LIG1       -0.0648
     34 C           1.6273    6.8261    2.1186 C.1     1  LIG1       -0.1138
     35 H           2.5296    6.8809    2.6821 H       1  LIG1        0.1232
     36 O          -0.9475    9.1049    0.6207 O.3     1  LIG1       -0.4927
     37 C           0.0942    9.5671   -0.2433 C.3     1  LIG1        0.0789
     38 H           0.3350   10.5735    0.0887 H       1  LIG1        0.0660
     39 H           0.9694    8.9217   -0.1570 H       1  LIG1        0.0660
     40 H          -0.2656    9.5842   -1.2741 H       1  LIG1        0.0660
     41 C          -3.4691    8.5045   -0.8705 C.ar    1  LIG1        0.0485
     42 C          -4.0374    9.5651   -0.2155 C.ar    1  LIG1        0.0816
     43 C          -4.9478   10.2972   -1.0690 C.ar    1  LIG1        0.1430
     44 C          -5.0392    9.7741   -2.3174 C.ar    1  LIG1        0.0193
     45 S          -4.0316    8.3905   -2.5015 S.2     1  LIG1       -0.0910
     46 H          -5.6621   10.1323   -3.1197 H       1  LIG1        0.0731
     47 C          -3.8343    9.8815    1.1674 C.1     1  LIG1       -0.0648
     48 C          -3.6791   10.1590    2.3260 C.1     1  LIG1       -0.1138
     49 H          -3.5343   10.3915    3.3554 H       1  LIG1        0.1232
     50 O          -5.6605   11.3746   -0.6467 O.3     1  LIG1       -0.4933
     51 C          -4.8712   12.5524   -0.4707 C.3     1  LIG1        0.0789
     52 H          -5.5532   13.3227   -0.1208 H       1  LIG1        0.0660
     53 H          -4.0898   12.3783    0.2702 H       1  LIG1        0.0660
     54 H          -4.4278   12.8449   -1.4247 H       1  LIG1        0.0660
@<TRIPOS>BOND
     1    46    44    1
     2    45    44   ar
     3    45    41   ar
     4    44    43   ar
     5    27    24    1
     6    26    24    1
     7    25    24    1
     8    12    11    1
     9    24    23    1
    10    54    51    1
    11    14    11    1
    12    40    37    1
    13    11    10    1
    14    11    13    1
    15    43    50    1
    16    43    42   ar
    17    41    31    1
    18    41    42   ar
    19    10     3    1
    20    50    51    1
    21    32    31   ar
    22    32    28   ar
    23    51    52    1
    24    51    53    1
    25     9     8    1
    26    31    30   ar
    27    23    17    1
    28    37    39    1
    29    37    38    1
    30    37    36    1
    31    42    47    1
    32    22    21    1
    33     8     7    3
    34    21    20    3
    35    17    16   ar
    36    17    18   ar
    37    20    16    1
    38    28    18    1
    39    28    29   ar
    40    30    36    1
    41    30    29   ar
    42    16    15   ar
    43     3     2   ar
    44     3     4   ar
    45    18    19   ar
    46     7     2    1
    47    29    33    1
    48    15    19   ar
    49    15     4    1
    50     2     1   ar
    51    47    48    3
    52     4     5   ar
    53    33    34    3
    54    34    35    1
    55     1     5   ar
    56     1     6    1
    57    48    49    1
