@<TRIPOS>MOLECULE
mol_data/opt/m06hf/geoms/mol2/5el5el5el-5el.out
 54 57 0 0 0
SMALL
GASTEIGER

@<TRIPOS>ATOM
      1 C          -1.3712   -1.8160    2.3107 C.ar    1  LIG1       -0.0047
      2 C          -0.7785   -2.0258    1.0981 C.ar    1  LIG1        0.0739
      3 C          -0.3855   -0.7808    0.4719 C.ar    1  LIG1        0.1506
      4 C          -0.6994    0.3069    1.2383 C.ar    1  LIG1        0.0700
      5 S          -1.4723   -0.1579    2.7156 S.2     1  LIG1       -0.0911
      6 H          -1.7607   -2.5732    2.9715 H       1  LIG1        0.0707
      7 C          -0.6401   -3.3340    0.5182 C.1     1  LIG1       -0.0654
      8 C          -0.5463   -4.4407    0.0591 C.1     1  LIG1       -0.1138
      9 H          -0.4701   -5.4224   -0.3479 H       1  LIG1        0.1232
     10 O           0.1607   -0.6500   -0.7546 O.3     1  LIG1       -0.4927
     11 C           1.2903   -1.4737   -1.0540 C.3     1  LIG1        0.0789
     12 H           1.8069   -0.9745   -1.8697 H       1  LIG1        0.0660
     13 H           1.9453   -1.5386   -0.1841 H       1  LIG1        0.0660
     14 H           0.9629   -2.4659   -1.3570 H       1  LIG1        0.0660
     15 C          -0.4719    1.7086    0.8900 C.ar    1  LIG1        0.0491
     16 C           0.6850    2.2831    0.4328 C.ar    1  LIG1        0.0823
     17 C           0.5266    3.6939    0.1823 C.ar    1  LIG1        0.1513
     18 C          -0.7298    4.1499    0.4588 C.ar    1  LIG1        0.0706
     19 S          -1.7462    2.8670    1.0250 S.2     1  LIG1       -0.0820
     20 C           1.9416    1.6162    0.2570 C.1     1  LIG1       -0.0648
     21 C           3.0235    1.1140    0.1063 C.1     1  LIG1       -0.1138
     22 H           3.9861    0.6737   -0.0155 H       1  LIG1        0.1232
     23 O           1.5274    4.4732   -0.2919 O.3     1  LIG1       -0.4927
     24 C           1.6788    4.3956   -1.7121 C.3     1  LIG1        0.0789
     25 H           2.4929    5.0699   -1.9642 H       1  LIG1        0.0660
     26 H           1.9273    3.3755   -2.0087 H       1  LIG1        0.0660
     27 H           0.7557    4.7162   -2.1991 H       1  LIG1        0.0660
     28 C          -1.2089    5.5199    0.2777 C.ar    1  LIG1        0.0491
     29 C          -0.6014    6.6746    0.6964 C.ar    1  LIG1        0.0823
     30 C          -1.3411    7.8478    0.2969 C.ar    1  LIG1        0.1513
     31 C          -2.4776    7.5542   -0.3987 C.ar    1  LIG1        0.0706
     32 S          -2.6735    5.8426   -0.5816 S.2     1  LIG1       -0.0820
     33 C           0.5987    6.7437    1.4765 C.1     1  LIG1       -0.0648
     34 C           1.6050    6.8220    2.1278 C.1     1  LIG1       -0.1138
     35 H           2.4986    6.8747    2.7051 H       1  LIG1        0.1232
     36 O          -0.9319    9.1080    0.5771 O.3     1  LIG1       -0.4927
     37 C           0.1262    9.5593   -0.2725 C.3     1  LIG1        0.0789
     38 H           0.3677   10.5660    0.0579 H       1  LIG1        0.0660
     39 H           0.9959    8.9092   -0.1689 H       1  LIG1        0.0660
     40 H          -0.2170    9.5730   -1.3091 H       1  LIG1        0.0660
     41 C          -3.4331    8.5145   -0.9510 C.ar    1  LIG1        0.0485
     42 C          -4.0054    9.5818   -0.3107 C.ar    1  LIG1        0.0816
     43 C          -4.8977   10.3148   -1.1824 C.ar    1  LIG1        0.1430
     44 C          -4.9723    9.7857   -2.4293 C.ar    1  LIG1        0.0193
     45 S          -3.9702    8.3952   -2.5901 S.2     1  LIG1       -0.0910
     46 H          -5.5801   10.1432   -3.2434 H       1  LIG1        0.0731
     47 C          -3.8225    9.9044    1.0737 C.1     1  LIG1       -0.0648
     48 C          -3.6841   10.1871    2.2331 C.1     1  LIG1       -0.1138
     49 H          -3.5543   10.4242    3.2634 H       1  LIG1        0.1232
     50 O          -5.6105   11.3986   -0.7772 O.3     1  LIG1       -0.4933
     51 C          -4.8171   12.5726   -0.5947 C.3     1  LIG1        0.0789
     52 H          -5.5000   13.3487   -0.2598 H       1  LIG1        0.0660
     53 H          -4.0488   12.3978    0.1595 H       1  LIG1        0.0660
     54 H          -4.3568   12.8574   -1.5429 H       1  LIG1        0.0660
@<TRIPOS>BOND
     1    46    44    1
     2    45    44   ar
     3    45    41   ar
     4    44    43   ar
     5    27    24    1
     6    26    24    1
     7    25    24    1
     8    12    11    1
     9    24    23    1
    10    54    51    1
    11    14    11    1
    12    40    37    1
    13    43    50    1
    14    43    42   ar
    15    11    10    1
    16    11    13    1
    17    41    31    1
    18    41    42   ar
    19    50    51    1
    20    10     3    1
    21    51    52    1
    22    51    53    1
    23    32    31   ar
    24    32    28   ar
    25    31    30   ar
    26     9     8    1
    27    42    47    1
    28    23    17    1
    29    37    39    1
    30    37    38    1
    31    37    36    1
    32    22    21    1
    33     8     7    3
    34    21    20    3
    35    17    16   ar
    36    17    18   ar
    37    20    16    1
    38    28    18    1
    39    28    29   ar
    40    30    36    1
    41    30    29   ar
    42    16    15   ar
    43    18    19   ar
    44     3     2   ar
    45     3     4   ar
    46     7     2    1
    47    29    33    1
    48    15    19   ar
    49    15     4    1
    50    47    48    3
    51     2     1   ar
    52     4     5   ar
    53    33    34    3
    54    34    35    1
    55    48    49    1
    56     1     5   ar
    57     1     6    1
