@<TRIPOS>MOLECULE
mol_data/opt/m06hf/geoms/mol2/5fa.out
 10 10 0 0 0
SMALL
GASTEIGER

@<TRIPOS>ATOM
      1 C          -2.0554   -1.7087   -0.0002 C.ar    1  LIG1        0.0172
      2 C          -0.6973   -1.6784   -0.0003 C.ar    1  LIG1        0.1238
      3 C          -0.1658   -0.3413    0.0001 C.ar    1  LIG1       -0.0131
      4 C          -1.1515    0.5933    0.0004 C.ar    1  LIG1       -0.0208
      5 S          -2.7156   -0.1185    0.0008 S.2     1  LIG1       -0.1014
      6 H          -2.6822   -2.5837   -0.0005 H       1  LIG1        0.0730
      7 H          -1.0414    1.6652    0.0007 H       1  LIG1        0.0694
      8 O           0.0584   -2.8128   -0.0008 O.3     1  LIG1       -0.5062
      9 H           0.9928   -2.5850   -0.0008 H       1  LIG1        0.2922
     10 H           0.8902   -0.1092    0.0000 H       1  LIG1        0.0659
@<TRIPOS>BOND
     1     9     8    1
     2     8     2    1
     3     6     1    1
     4     2     1   ar
     5     2     3   ar
     6     1     5   ar
     7    10     3    1
     8     3     4   ar
     9     4     7    1
    10     4     5   ar
