@<TRIPOS>MOLECULE
mol_data/opt/m06hf/geoms/mol2/5fa5fa5fa-.out
 26 28 0 0 0
SMALL
GASTEIGER

@<TRIPOS>ATOM
      1 C          -2.0388   -1.9026    0.0163 C.ar    1  LIG1        0.0178
      2 C          -0.6910   -1.8646   -0.1418 C.ar    1  LIG1        0.1245
      3 C          -0.1549   -0.5333   -0.1472 C.ar    1  LIG1       -0.0047
      4 C          -1.1282    0.4114    0.0157 C.ar    1  LIG1        0.0330
      5 S          -2.6914   -0.3163    0.1825 S.2     1  LIG1       -0.0923
      6 H          -2.6646   -2.7775    0.0500 H       1  LIG1        0.0730
      7 O           0.0571   -2.9945   -0.2885 O.3     1  LIG1       -0.5062
      8 H           0.9910   -2.7658   -0.3233 H       1  LIG1        0.2922
      9 H           0.8900   -0.2866   -0.2691 H       1  LIG1        0.0666
     10 C          -0.9560    1.8600    0.0613 C.ar    1  LIG1        0.0679
     11 C           0.2107    2.5465    0.2450 C.ar    1  LIG1        0.1327
     12 C           0.0522    3.9682    0.2627 C.ar    1  LIG1       -0.0041
     13 C          -1.2480    4.3421    0.0836 C.ar    1  LIG1        0.0336
     14 S          -2.2806    2.9656   -0.1320 S.2     1  LIG1       -0.0833
     15 O           1.4038    1.9083    0.4008 O.3     1  LIG1       -0.5056
     16 H           2.1017    2.5514    0.5603 H       1  LIG1        0.2922
     17 H           0.8570    4.6747    0.4054 H       1  LIG1        0.0666
     18 C          -1.7815    5.7001    0.0437 C.ar    1  LIG1        0.0674
     19 C          -1.0716    6.8561   -0.1326 C.ar    1  LIG1        0.1321
     20 C          -1.8899    8.0335   -0.1413 C.ar    1  LIG1       -0.0125
     21 C          -3.2041    7.7354    0.0281 C.ar    1  LIG1       -0.0202
     22 S          -3.4699    6.0498    0.2186 S.2     1  LIG1       -0.0924
     23 H          -4.0354    8.4203    0.0633 H       1  LIG1        0.0695
     24 O           0.2834    6.8552   -0.2719 O.3     1  LIG1       -0.5056
     25 H           0.5893    7.7187   -0.5671 H       1  LIG1        0.2922
     26 H          -1.5034    9.0350   -0.2668 H       1  LIG1        0.0659
@<TRIPOS>BOND
     1    25    24    1
     2     8     7    1
     3     7     2    1
     4    24    19    1
     5     9     3    1
     6    26    20    1
     7     3     2   ar
     8     3     4   ar
     9     2     1   ar
    10    20    19   ar
    11    20    21   ar
    12    19    18   ar
    13    14    10   ar
    14    14    13   ar
    15     4    10    1
    16     4     5   ar
    17     1     6    1
    18     1     5   ar
    19    21    23    1
    20    21    22   ar
    21    18    13    1
    22    18    22   ar
    23    10    11   ar
    24    13    12   ar
    25    11    12   ar
    26    11    15    1
    27    12    17    1
    28    15    16    1
