@<TRIPOS>MOLECULE
mol_data/opt/m06hf/geoms/mol2/5fa5fa-5fa-5fa.out
 34 37 0 0 0
SMALL
GASTEIGER

@<TRIPOS>ATOM
      1 C          -1.9930   -1.9959   -0.0169 C.ar    1  LIG1        0.0178
      2 C          -0.6364   -1.9596   -0.0044 C.ar    1  LIG1        0.1245
      3 C          -0.0999   -0.6287    0.0035 C.ar    1  LIG1       -0.0047
      4 C          -1.0826    0.3214   -0.0035 C.ar    1  LIG1        0.0330
      5 S          -2.6568   -0.4046   -0.0197 S.2     1  LIG1       -0.0923
      6 H          -2.6220   -2.8691   -0.0245 H       1  LIG1        0.0730
      7 O           0.1226   -3.0920    0.0001 O.3     1  LIG1       -0.5062
      8 H           1.0561   -2.8593    0.0094 H       1  LIG1        0.2922
      9 H           0.9531   -0.3898    0.0137 H       1  LIG1        0.0666
     10 C          -0.9145    1.7716    0.0011 C.ar    1  LIG1        0.0679
     11 C           0.2626    2.4663    0.0111 C.ar    1  LIG1        0.1327
     12 C           0.1023    3.8867    0.0129 C.ar    1  LIG1       -0.0041
     13 C          -1.2128    4.2565    0.0044 C.ar    1  LIG1        0.0336
     14 S          -2.2578    2.8716   -0.0061 S.2     1  LIG1       -0.0833
     15 O           1.4718    1.8390    0.0184 O.3     1  LIG1       -0.5056
     16 H           2.1787    2.4918    0.0259 H       1  LIG1        0.2922
     17 H           0.9150    4.5971    0.0202 H       1  LIG1        0.0666
     18 C          -1.7485    5.6118    0.0035 C.ar    1  LIG1        0.0680
     19 C          -1.0349    6.7787    0.0137 C.ar    1  LIG1        0.1327
     20 C          -1.8433    7.9571    0.0099 C.ar    1  LIG1       -0.0041
     21 C          -3.1779    7.6635   -0.0033 C.ar    1  LIG1        0.0336
     22 S          -3.4515    5.9534   -0.0111 S.2     1  LIG1       -0.0833
     23 O           0.3264    6.7887    0.0261 O.3     1  LIG1       -0.5056
     24 H           0.6526    7.6943    0.0335 H       1  LIG1        0.2922
     25 H          -1.4593    8.9664    0.0164 H       1  LIG1        0.0666
     26 C          -4.2924    8.6063   -0.0105 C.ar    1  LIG1        0.0674
     27 C          -4.2102    9.9724   -0.0064 C.ar    1  LIG1        0.1321
     28 C          -5.4871   10.6235   -0.0158 C.ar    1  LIG1       -0.0125
     29 C          -6.5085    9.7284   -0.0269 C.ar    1  LIG1       -0.0202
     30 S          -5.9519    8.1045   -0.0258 S.2     1  LIG1       -0.0924
     31 H          -7.5660    9.9346   -0.0356 H       1  LIG1        0.0695
     32 O          -3.0137   10.6216    0.0055 O.3     1  LIG1       -0.5056
     33 H          -3.1494   11.5745    0.0081 H       1  LIG1        0.2922
     34 H          -5.6170   11.6970   -0.0144 H       1  LIG1        0.0659
@<TRIPOS>BOND
     1    31    29    1
     2    29    30   ar
     3    29    28   ar
     4    30    26   ar
     5     6     1    1
     6     5     1   ar
     7     5     4   ar
     8     1     2   ar
     9    28    34    1
    10    28    27   ar
    11    22    21   ar
    12    22    18   ar
    13    26    27   ar
    14    26    21    1
    15    27    32    1
    16    14    10   ar
    17    14    13   ar
    18     2     7    1
    19     2     3   ar
    20     4    10    1
    21     4     3   ar
    22    21    20   ar
    23     7     8    1
    24    10    11   ar
    25     3     9    1
    26    18    13    1
    27    18    19   ar
    28    13    12   ar
    29    32    33    1
    30    20    19   ar
    31    20    25    1
    32    11    12   ar
    33    11    15    1
    34    12    17    1
    35    19    23    1
    36    15    16    1
    37    23    24    1
