@<TRIPOS>MOLECULE
mol_data/opt/m06hf/geoms/mol2/5fa5fa.out
 18 19 0 0 0
SMALL
GASTEIGER

@<TRIPOS>ATOM
      1 C          -2.0708   -1.8089    0.0191 C.ar    1  LIG1        0.0178
      2 C          -0.7141   -1.7803   -0.0007 C.ar    1  LIG1        0.1245
      3 C          -0.1714   -0.4516   -0.0106 C.ar    1  LIG1       -0.0047
      4 C          -1.1498    0.5019    0.0014 C.ar    1  LIG1        0.0330
      5 S          -2.7259   -0.2158    0.0304 S.2     1  LIG1       -0.0923
      6 H          -2.7025   -2.6803    0.0277 H       1  LIG1        0.0730
      7 O           0.0384   -2.9164   -0.0110 O.3     1  LIG1       -0.5062
      8 H           0.9727   -2.6894   -0.0502 H       1  LIG1        0.2922
      9 H           0.8828   -0.2159   -0.0265 H       1  LIG1        0.0666
     10 C          -0.9770    1.9536   -0.0032 C.ar    1  LIG1        0.0674
     11 C           0.2015    2.6452    0.0291 C.ar    1  LIG1        0.1321
     12 C           0.0328    4.0695    0.0170 C.ar    1  LIG1       -0.0125
     13 C          -1.2766    4.4231   -0.0242 C.ar    1  LIG1       -0.0202
     14 S          -2.3168    3.0542   -0.0478 S.2     1  LIG1       -0.0924
     15 H          -1.6914    5.4171   -0.0422 H       1  LIG1        0.0695
     16 O           1.4087    2.0144    0.0704 O.3     1  LIG1       -0.5056
     17 H           2.1215    2.6602    0.0877 H       1  LIG1        0.2922
     18 H           0.8536    4.7730    0.0384 H       1  LIG1        0.0659
@<TRIPOS>BOND
     1     8     7    1
     2    14    13   ar
     3    14    10   ar
     4    15    13    1
     5     9     3    1
     6    13    12   ar
     7     7     2    1
     8     3     2   ar
     9     3     4   ar
    10    10     4    1
    11    10    11   ar
    12     2     1   ar
    13     4     5   ar
    14    12    11   ar
    15    12    18    1
    16     1     6    1
    17     1     5   ar
    18    11    16    1
    19    16    17    1
