@<TRIPOS>MOLECULE
mol_data/opt/m06hf/geoms/mol2/5fa5fa-5fa5fa-.out
 34 37 0 0 0
SMALL
GASTEIGER

@<TRIPOS>ATOM
      1 C          -1.9935   -1.9958    0.0002 C.ar    1  LIG1        0.0178
      2 C          -0.6367   -1.9597   -0.0005 C.ar    1  LIG1        0.1245
      3 C          -0.1000   -0.6287   -0.0002 C.ar    1  LIG1       -0.0047
      4 C          -1.0826    0.3215    0.0008 C.ar    1  LIG1        0.0330
      5 S          -2.6569   -0.4044    0.0013 S.2     1  LIG1       -0.0923
      6 H          -2.6228   -2.8687    0.0000 H       1  LIG1        0.0730
      7 O           0.1222   -3.0921   -0.0015 O.3     1  LIG1       -0.5062
      8 H           1.0557   -2.8593   -0.0018 H       1  LIG1        0.2922
      9 H           0.9530   -0.3897   -0.0006 H       1  LIG1        0.0666
     10 C          -0.9143    1.7717    0.0014 C.ar    1  LIG1        0.0679
     11 C           0.2630    2.4665    0.0012 C.ar    1  LIG1        0.1327
     12 C           0.1028    3.8868    0.0020 C.ar    1  LIG1       -0.0041
     13 C          -1.2124    4.2567    0.0027 C.ar    1  LIG1        0.0336
     14 S          -2.2574    2.8720    0.0026 S.2     1  LIG1       -0.0833
     15 O           1.4720    1.8387    0.0003 O.3     1  LIG1       -0.5056
     16 H           2.1791    2.4914    0.0003 H       1  LIG1        0.2922
     17 H           0.9155    4.5973    0.0019 H       1  LIG1        0.0666
     18 C          -1.7481    5.6120    0.0036 C.ar    1  LIG1        0.0680
     19 C          -1.0347    6.7793    0.0038 C.ar    1  LIG1        0.1327
     20 C          -1.8433    7.9575    0.0047 C.ar    1  LIG1       -0.0041
     21 C          -3.1779    7.6634    0.0052 C.ar    1  LIG1        0.0336
     22 S          -3.4512    5.9534    0.0046 S.2     1  LIG1       -0.0833
     23 O           0.3267    6.7894    0.0032 O.3     1  LIG1       -0.5056
     24 H           0.6528    7.6950    0.0033 H       1  LIG1        0.2922
     25 H          -1.4598    8.9670    0.0049 H       1  LIG1        0.0666
     26 C          -4.2926    8.6060    0.0061 C.ar    1  LIG1        0.0674
     27 C          -4.2104    9.9721    0.0065 C.ar    1  LIG1        0.1321
     28 C          -5.4874   10.6232    0.0073 C.ar    1  LIG1       -0.0125
     29 C          -6.5088    9.7279    0.0076 C.ar    1  LIG1       -0.0202
     30 S          -5.9521    8.1040    0.0067 S.2     1  LIG1       -0.0924
     31 H          -7.5664    9.9338    0.0082 H       1  LIG1        0.0695
     32 O          -3.0137   10.6209    0.0061 O.3     1  LIG1       -0.5056
     33 H          -3.1492   11.5738    0.0063 H       1  LIG1        0.2922
     34 H          -5.6173   11.6966    0.0078 H       1  LIG1        0.0659
@<TRIPOS>BOND
     1     8     7    1
     2     7     2    1
     3     9     3    1
     4     2     3   ar
     5     2     1   ar
     6     3     4   ar
     7     6     1    1
     8     1     5   ar
     9    16    15    1
    10    15    11    1
    11     4     5   ar
    12     4    10    1
    13    11    10   ar
    14    11    12   ar
    15    10    14   ar
    16    17    12    1
    17    12    13   ar
    18    14    13   ar
    19    13    18    1
    20    23    24    1
    21    23    19    1
    22    18    19   ar
    23    18    22   ar
    24    19    20   ar
    25    22    21   ar
    26    20    25    1
    27    20    21   ar
    28    21    26    1
    29    26    27   ar
    30    26    30   ar
    31    32    33    1
    32    32    27    1
    33    27    28   ar
    34    30    29   ar
    35    28    29   ar
    36    28    34    1
    37    29    31    1
