@<TRIPOS>MOLECULE
mol_data/opt/m06hf/geoms/mol2/5fa5fa5fa-5fa.out
 34 37 0 0 0
SMALL
GASTEIGER

@<TRIPOS>ATOM
      1 C          -1.9930   -1.9959   -0.0175 C.ar    1  LIG1        0.0178
      2 C          -0.6364   -1.9596    0.0045 C.ar    1  LIG1        0.1245
      3 C          -0.0999   -0.6287    0.0123 C.ar    1  LIG1       -0.0047
      4 C          -1.0825    0.3215   -0.0041 C.ar    1  LIG1        0.0330
      5 S          -2.6566   -0.4046   -0.0295 S.2     1  LIG1       -0.0923
      6 H          -2.6219   -2.8691   -0.0272 H       1  LIG1        0.0730
      7 O           0.1225   -3.0920    0.0173 O.3     1  LIG1       -0.5062
      8 H           1.0558   -2.8593    0.0341 H       1  LIG1        0.2922
      9 H           0.9530   -0.3898    0.0293 H       1  LIG1        0.0666
     10 C          -0.9144    1.7716   -0.0021 C.ar    1  LIG1        0.0679
     11 C           0.2626    2.4664    0.0178 C.ar    1  LIG1        0.1327
     12 C           0.1023    3.8867    0.0144 C.ar    1  LIG1       -0.0041
     13 C          -1.2127    4.2566   -0.0083 C.ar    1  LIG1        0.0336
     14 S          -2.2576    2.8717   -0.0257 S.2     1  LIG1       -0.0833
     15 O           1.4715    1.8390    0.0387 O.3     1  LIG1       -0.5056
     16 H           2.1784    2.4917    0.0503 H       1  LIG1        0.2922
     17 H           0.9150    4.5971    0.0281 H       1  LIG1        0.0666
     18 C          -1.7483    5.6118   -0.0181 C.ar    1  LIG1        0.0680
     19 C          -1.0348    6.7788   -0.0082 C.ar    1  LIG1        0.1327
     20 C          -1.8431    7.9572   -0.0224 C.ar    1  LIG1       -0.0041
     21 C          -3.1776    7.6635   -0.0430 C.ar    1  LIG1        0.0336
     22 S          -3.4512    5.9534   -0.0451 S.2     1  LIG1       -0.0833
     23 O           0.3264    6.7889    0.0132 O.3     1  LIG1       -0.5056
     24 H           0.6526    7.6945    0.0164 H       1  LIG1        0.2922
     25 H          -1.4591    8.9664   -0.0176 H       1  LIG1        0.0666
     26 C          -4.2920    8.6061   -0.0616 C.ar    1  LIG1        0.0674
     27 C          -4.2098    9.9722   -0.0593 C.ar    1  LIG1        0.1321
     28 C          -5.4865   10.6234   -0.0809 C.ar    1  LIG1       -0.0125
     29 C          -6.5079    9.7283   -0.0990 C.ar    1  LIG1       -0.0202
     30 S          -5.9513    8.1043   -0.0905 S.2     1  LIG1       -0.0924
     31 H          -7.5653    9.9343   -0.1171 H       1  LIG1        0.0695
     32 O          -3.0134   10.6213   -0.0387 O.3     1  LIG1       -0.5056
     33 H          -3.1490   11.5742   -0.0347 H       1  LIG1        0.2922
     34 H          -5.6164   11.6968   -0.0826 H       1  LIG1        0.0659
@<TRIPOS>BOND
     1    31    29    1
     2    29    30   ar
     3    29    28   ar
     4    30    26   ar
     5    34    28    1
     6    28    27   ar
     7    26    27   ar
     8    26    21    1
     9    27    32    1
    10    22    21   ar
    11    22    18   ar
    12    21    20   ar
    13    32    33    1
    14     5     1   ar
    15     5     4   ar
    16     6     1    1
    17    14    13   ar
    18    14    10   ar
    19    20    25    1
    20    20    19   ar
    21    18    13    1
    22    18    19   ar
    23     1     2   ar
    24    13    12   ar
    25    19    23    1
    26     4    10    1
    27     4     3   ar
    28    10    11   ar
    29     2     3   ar
    30     2     7    1
    31     3     9    1
    32    23    24    1
    33    12    11   ar
    34    12    17    1
    35     7     8    1
    36    11    15    1
    37    15    16    1
