@<TRIPOS>MOLECULE
mol_data/opt/m06hf/geoms/mol2/5fa5fa5fa5fa-.out
 34 37 0 0 0
SMALL
GASTEIGER

@<TRIPOS>ATOM
      1 C          -1.9931   -1.9959   -0.0004 C.ar    1  LIG1        0.0178
      2 C          -0.6365   -1.9596    0.0094 C.ar    1  LIG1        0.1245
      3 C          -0.0999   -0.6287    0.0098 C.ar    1  LIG1       -0.0047
      4 C          -1.0825    0.3214    0.0002 C.ar    1  LIG1        0.0330
      5 S          -2.6568   -0.4046   -0.0096 S.2     1  LIG1       -0.0923
      6 H          -2.6221   -2.8692   -0.0026 H       1  LIG1        0.0730
      7 O           0.1225   -3.0921    0.0177 O.3     1  LIG1       -0.5062
      8 H           1.0559   -2.8594    0.0259 H       1  LIG1        0.2922
      9 H           0.9532   -0.3899    0.0168 H       1  LIG1        0.0666
     10 C          -0.9144    1.7715   -0.0022 C.ar    1  LIG1        0.0679
     11 C           0.2627    2.4663    0.0056 C.ar    1  LIG1        0.1327
     12 C           0.1024    3.8867    0.0009 C.ar    1  LIG1       -0.0041
     13 C          -1.2126    4.2566   -0.0106 C.ar    1  LIG1        0.0336
     14 S          -2.2577    2.8716   -0.0158 S.2     1  LIG1       -0.0833
     15 O           1.4718    1.8390    0.0169 O.3     1  LIG1       -0.5056
     16 H           2.1787    2.4918    0.0205 H       1  LIG1        0.2922
     17 H           0.9152    4.5970    0.0058 H       1  LIG1        0.0666
     18 C          -1.7483    5.6118   -0.0182 C.ar    1  LIG1        0.0680
     19 C          -1.0347    6.7788   -0.0168 C.ar    1  LIG1        0.1327
     20 C          -1.8431    7.9571   -0.0261 C.ar    1  LIG1       -0.0041
     21 C          -3.1777    7.6635   -0.0344 C.ar    1  LIG1        0.0336
     22 S          -3.4514    5.9534   -0.0307 S.2     1  LIG1       -0.0833
     23 O           0.3266    6.7889   -0.0073 O.3     1  LIG1       -0.5056
     24 H           0.6527    7.6945   -0.0101 H       1  LIG1        0.2922
     25 H          -1.4590    8.9664   -0.0266 H       1  LIG1        0.0666
     26 C          -4.2922    8.6062   -0.0452 C.ar    1  LIG1        0.0674
     27 C          -4.2098    9.9723   -0.0464 C.ar    1  LIG1        0.1321
     28 C          -5.4867   10.6235   -0.0580 C.ar    1  LIG1       -0.0125
     29 C          -6.5082    9.7285   -0.0653 C.ar    1  LIG1       -0.0202
     30 S          -5.9517    8.1045   -0.0585 S.2     1  LIG1       -0.0924
     31 H          -7.5657    9.9347   -0.0745 H       1  LIG1        0.0695
     32 O          -3.0133   10.6214   -0.0375 O.3     1  LIG1       -0.5056
     33 H          -3.1489   11.5743   -0.0354 H       1  LIG1        0.2922
     34 H          -5.6164   11.6970   -0.0607 H       1  LIG1        0.0659
@<TRIPOS>BOND
     1    31    29    1
     2    29    30   ar
     3    29    28   ar
     4    34    28    1
     5    30    26   ar
     6    28    27   ar
     7    27    26   ar
     8    27    32    1
     9    26    21    1
    10    32    33    1
    11    21    22   ar
    12    21    20   ar
    13    22    18   ar
    14    25    20    1
    15    20    19   ar
    16    18    19   ar
    17    18    13    1
    18    19    23    1
    19    14    13   ar
    20    14    10   ar
    21    13    12   ar
    22    24    23    1
    23     5     1   ar
    24     5     4   ar
    25     6     1    1
    26    10     4    1
    27    10    11   ar
    28     1     2   ar
    29     4     3   ar
    30    12    11   ar
    31    12    17    1
    32    11    15    1
    33     2     3   ar
    34     2     7    1
    35     3     9    1
    36    15    16    1
    37     7     8    1
