@<TRIPOS>MOLECULE
mol_data/opt/m06hf/geoms/mol2/5fa5fa5fa-5fa-.out
 34 37 0 0 0
SMALL
GASTEIGER

@<TRIPOS>ATOM
      1 C          -1.9931   -1.9959   -0.0108 C.ar    1  LIG1        0.0178
      2 C          -0.6365   -1.9597    0.0090 C.ar    1  LIG1        0.1245
      3 C          -0.1000   -0.6287    0.0142 C.ar    1  LIG1       -0.0047
      4 C          -1.0826    0.3214   -0.0019 C.ar    1  LIG1        0.0330
      5 S          -2.6567   -0.4046   -0.0237 S.2     1  LIG1       -0.0923
      6 H          -2.6220   -2.8692   -0.0183 H       1  LIG1        0.0730
      7 O           0.1224   -3.0921    0.0221 O.3     1  LIG1       -0.5062
      8 H           1.0558   -2.8593    0.0372 H       1  LIG1        0.2922
      9 H           0.9530   -0.3898    0.0291 H       1  LIG1        0.0666
     10 C          -0.9144    1.7716   -0.0021 C.ar    1  LIG1        0.0679
     11 C           0.2626    2.4663    0.0149 C.ar    1  LIG1        0.1327
     12 C           0.1024    3.8867    0.0099 C.ar    1  LIG1       -0.0041
     13 C          -1.2126    4.2566   -0.0111 C.ar    1  LIG1        0.0336
     14 S          -2.2575    2.8717   -0.0250 S.2     1  LIG1       -0.0833
     15 O           1.4716    1.8390    0.0348 O.3     1  LIG1       -0.5056
     16 H           2.1785    2.4918    0.0447 H       1  LIG1        0.2922
     17 H           0.9151    4.5971    0.0213 H       1  LIG1        0.0666
     18 C          -1.7482    5.6118   -0.0217 C.ar    1  LIG1        0.0680
     19 C          -1.0347    6.7788   -0.0135 C.ar    1  LIG1        0.1327
     20 C          -1.8430    7.9572   -0.0279 C.ar    1  LIG1       -0.0041
     21 C          -3.1775    7.6635   -0.0473 C.ar    1  LIG1        0.0336
     22 S          -3.4512    5.9534   -0.0477 S.2     1  LIG1       -0.0833
     23 O           0.3265    6.7889    0.0068 O.3     1  LIG1       -0.5056
     24 H           0.6526    7.6945    0.0094 H       1  LIG1        0.2922
     25 H          -1.4590    8.9664   -0.0243 H       1  LIG1        0.0666
     26 C          -4.2920    8.6062   -0.0660 C.ar    1  LIG1        0.0674
     27 C          -4.2096    9.9723   -0.0669 C.ar    1  LIG1        0.1321
     28 C          -5.4864   10.6234   -0.0876 C.ar    1  LIG1       -0.0125
     29 C          -6.5078    9.7283   -0.1019 C.ar    1  LIG1       -0.0202
     30 S          -5.9513    8.1043   -0.0906 S.2     1  LIG1       -0.0924
     31 H          -7.5652    9.9344   -0.1185 H       1  LIG1        0.0695
     32 O          -3.0132   10.6214   -0.0496 O.3     1  LIG1       -0.5056
     33 H          -3.1488   11.5742   -0.0526 H       1  LIG1        0.2922
     34 H          -5.6162   11.6969   -0.0913 H       1  LIG1        0.0659
@<TRIPOS>BOND
     1    31    29    1
     2    29    30   ar
     3    29    28   ar
     4    34    28    1
     5    30    26   ar
     6    28    27   ar
     7    27    26   ar
     8    27    32    1
     9    26    21    1
    10    33    32    1
    11    22    21   ar
    12    22    18   ar
    13    21    20   ar
    14    20    25    1
    15    20    19   ar
    16    14    13   ar
    17    14    10   ar
    18     5     1   ar
    19     5     4   ar
    20    18    19   ar
    21    18    13    1
    22     6     1    1
    23    19    23    1
    24    13    12   ar
    25     1     2   ar
    26    10     4    1
    27    10    11   ar
    28     4     3   ar
    29    23    24    1
    30     2     3   ar
    31     2     7    1
    32    12    11   ar
    33    12    17    1
    34     3     9    1
    35    11    15    1
    36     7     8    1
    37    15    16    1
