@<TRIPOS>MOLECULE
mol_data/opt/m06hf/geoms/mol2/5fa5fa-5fa.out
 26 28 0 0 0
SMALL
GASTEIGER

@<TRIPOS>ATOM
      1 C          -2.0524   -1.9067   -0.0000 C.ar    1  LIG1        0.0178
      2 C          -0.6955   -1.8749   -0.0005 C.ar    1  LIG1        0.1245
      3 C          -0.1540   -0.5456    0.0000 C.ar    1  LIG1       -0.0047
      4 C          -1.1333    0.4075    0.0008 C.ar    1  LIG1        0.0330
      5 S          -2.7114   -0.3117    0.0009 S.2     1  LIG1       -0.0923
      6 H          -2.6836   -2.7782   -0.0002 H       1  LIG1        0.0730
      7 O           0.0590   -3.0103   -0.0012 O.3     1  LIG1       -0.5062
      8 H           0.9935   -2.7812   -0.0014 H       1  LIG1        0.2922
      9 H           0.8993   -0.3065   -0.0002 H       1  LIG1        0.0666
     10 C          -0.9584    1.8565    0.0014 C.ar    1  LIG1        0.0679
     11 C           0.2220    2.5465    0.0014 C.ar    1  LIG1        0.1327
     12 C           0.0676    3.9678    0.0021 C.ar    1  LIG1       -0.0041
     13 C          -1.2468    4.3410    0.0026 C.ar    1  LIG1        0.0336
     14 S          -2.2951    2.9629    0.0023 S.2     1  LIG1       -0.0833
     15 O           1.4261    1.9105    0.0007 O.3     1  LIG1       -0.5056
     16 H           2.1406    2.5556    0.0008 H       1  LIG1        0.2922
     17 H           0.8843    4.6742    0.0022 H       1  LIG1        0.0666
     18 C          -1.7859    5.6975    0.0034 C.ar    1  LIG1        0.0674
     19 C          -1.0742    6.8658    0.0037 C.ar    1  LIG1        0.1321
     20 C          -1.8981    8.0391    0.0045 C.ar    1  LIG1       -0.0125
     21 C          -3.2197    7.7275    0.0048 C.ar    1  LIG1       -0.0202
     22 S          -3.4882    6.0312    0.0041 S.2     1  LIG1       -0.0924
     23 H          -4.0570    8.4060    0.0054 H       1  LIG1        0.0695
     24 O           0.2874    6.8812    0.0032 O.3     1  LIG1       -0.5056
     25 H           0.6100    7.7876    0.0035 H       1  LIG1        0.2922
     26 H          -1.5101    9.0479    0.0048 H       1  LIG1        0.0659
@<TRIPOS>BOND
     1     8     7    1
     2     7     2    1
     3     2     1   ar
     4     2     3   ar
     5     6     1    1
     6     9     3    1
     7     1     5   ar
     8     3     4   ar
     9    15    16    1
    10    15    11    1
    11     4     5   ar
    12     4    10    1
    13    11    10   ar
    14    11    12   ar
    15    10    14   ar
    16    12    17    1
    17    12    13   ar
    18    14    13   ar
    19    13    18    1
    20    24    25    1
    21    24    19    1
    22    18    19   ar
    23    18    22   ar
    24    19    20   ar
    25    22    21   ar
    26    20    26    1
    27    20    21   ar
    28    21    23    1
