@<TRIPOS>MOLECULE
mol_data/opt/m06hf/geoms/mol2/5fa5fa-5fa-.out
 26 28 0 0 0
SMALL
GASTEIGER

@<TRIPOS>ATOM
      1 C          -2.0285   -1.9027   -0.0651 C.ar    1  LIG1        0.0178
      2 C          -0.6871   -1.8625    0.1410 C.ar    1  LIG1        0.1245
      3 C          -0.1552   -0.5298    0.1724 C.ar    1  LIG1       -0.0047
      4 C          -1.1248    0.4130   -0.0200 C.ar    1  LIG1        0.0330
      5 S          -2.6787   -0.3175   -0.2484 S.2     1  LIG1       -0.0923
      6 H          -2.6506   -2.7790   -0.1229 H       1  LIG1        0.0730
      7 O           0.0584   -2.9919    0.3022 O.3     1  LIG1       -0.5062
      8 H           0.9756   -2.7575    0.4738 H       1  LIG1        0.2922
      9 H           0.8842   -0.2807    0.3319 H       1  LIG1        0.0666
     10 C          -0.9531    1.8619   -0.0565 C.ar    1  LIG1        0.0679
     11 C           0.2142    2.5485   -0.2350 C.ar    1  LIG1        0.1327
     12 C           0.0558    3.9703   -0.2517 C.ar    1  LIG1       -0.0041
     13 C          -1.2458    4.3434   -0.0807 C.ar    1  LIG1        0.0336
     14 S          -2.2788    2.9665    0.1328 S.2     1  LIG1       -0.0833
     15 O           1.4090    1.9093   -0.3765 O.3     1  LIG1       -0.5056
     16 H           2.0754    2.5235   -0.7005 H       1  LIG1        0.2922
     17 H           0.8622    4.6769   -0.3843 H       1  LIG1        0.0666
     18 C          -1.7806    5.7010   -0.0417 C.ar    1  LIG1        0.0674
     19 C          -1.0741    6.8566    0.1500 C.ar    1  LIG1        0.1321
     20 C          -1.8935    8.0333    0.1533 C.ar    1  LIG1       -0.0125
     21 C          -3.2049    7.7351   -0.0358 C.ar    1  LIG1       -0.0202
     22 S          -3.4667    6.0503   -0.2387 S.2     1  LIG1       -0.0924
     23 H          -4.0363    8.4195   -0.0791 H       1  LIG1        0.0695
     24 O           0.2788    6.8556    0.3069 O.3     1  LIG1       -0.5056
     25 H           0.5799    7.7134    0.6228 H       1  LIG1        0.2922
     26 H          -1.5095    9.0345    0.2890 H       1  LIG1        0.0659
@<TRIPOS>BOND
     1    16    15    1
     2    17    12    1
     3    15    11    1
     4    12    11   ar
     5    12    13   ar
     6     5     1   ar
     7     5     4   ar
     8    22    18   ar
     9    22    21   ar
    10    11    10   ar
    11     6     1    1
    12    13    18    1
    13    13    14   ar
    14    23    21    1
    15     1     2   ar
    16    10     4    1
    17    10    14   ar
    18    18    19   ar
    19    21    20   ar
    20     4     3   ar
    21     2     3   ar
    22     2     7    1
    23    19    20   ar
    24    19    24    1
    25    20    26    1
    26     3     9    1
    27     7     8    1
    28    24    25    1
