@<TRIPOS>MOLECULE
mol_data/opt/m06hf/geoms/mol2/5fa5fa-5fa-5fa-.out
 34 37 0 0 0
SMALL
GASTEIGER

@<TRIPOS>ATOM
      1 C          -1.9931   -1.9960   -0.0110 C.ar    1  LIG1        0.0178
      2 C          -0.6364   -1.9597   -0.0010 C.ar    1  LIG1        0.1245
      3 C          -0.0999   -0.6287    0.0046 C.ar    1  LIG1       -0.0047
      4 C          -1.0826    0.3214   -0.0015 C.ar    1  LIG1        0.0330
      5 S          -2.6568   -0.4047   -0.0138 S.2     1  LIG1       -0.0923
      6 H          -2.6220   -2.8692   -0.0166 H       1  LIG1        0.0730
      7 O           0.1226   -3.0921    0.0031 O.3     1  LIG1       -0.5062
      8 H           1.0561   -2.8593    0.0099 H       1  LIG1        0.2922
      9 H           0.9532   -0.3898    0.0125 H       1  LIG1        0.0666
     10 C          -0.9145    1.7716    0.0015 C.ar    1  LIG1        0.0679
     11 C           0.2627    2.4663    0.0099 C.ar    1  LIG1        0.1327
     12 C           0.1023    3.8867    0.0105 C.ar    1  LIG1       -0.0041
     13 C          -1.2128    4.2566    0.0025 C.ar    1  LIG1        0.0336
     14 S          -2.2578    2.8717   -0.0057 S.2     1  LIG1       -0.0833
     15 O           1.4718    1.8389    0.0170 O.3     1  LIG1       -0.5056
     16 H           2.1787    2.4918    0.0225 H       1  LIG1        0.2922
     17 H           0.9151    4.5971    0.0165 H       1  LIG1        0.0666
     18 C          -1.7485    5.6118    0.0006 C.ar    1  LIG1        0.0680
     19 C          -1.0349    6.7788    0.0083 C.ar    1  LIG1        0.1327
     20 C          -1.8433    7.9572    0.0042 C.ar    1  LIG1       -0.0041
     21 C          -3.1779    7.6635   -0.0069 C.ar    1  LIG1        0.0336
     22 S          -3.4516    5.9534   -0.0124 S.2     1  LIG1       -0.0833
     23 O           0.3264    6.7889    0.0190 O.3     1  LIG1       -0.5056
     24 H           0.6525    7.6945    0.0239 H       1  LIG1        0.2922
     25 H          -1.4593    8.9665    0.0092 H       1  LIG1        0.0666
     26 C          -4.2925    8.6062   -0.0140 C.ar    1  LIG1        0.0674
     27 C          -4.2101    9.9723   -0.0142 C.ar    1  LIG1        0.1321
     28 C          -5.4870   10.6236   -0.0223 C.ar    1  LIG1       -0.0125
     29 C          -6.5085    9.7286   -0.0281 C.ar    1  LIG1       -0.0202
     30 S          -5.9520    8.1045   -0.0238 S.2     1  LIG1       -0.0924
     31 H          -7.5660    9.9347   -0.0347 H       1  LIG1        0.0695
     32 O          -3.0135   10.6214   -0.0067 O.3     1  LIG1       -0.5056
     33 H          -3.1489   11.5742   -0.0171 H       1  LIG1        0.2922
     34 H          -5.6167   11.6970   -0.0233 H       1  LIG1        0.0659
@<TRIPOS>BOND
     1    31    29    1
     2    29    30   ar
     3    29    28   ar
     4    30    26   ar
     5    34    28    1
     6    28    27   ar
     7    33    32    1
     8     6     1    1
     9    27    26   ar
    10    27    32    1
    11    26    21    1
    12     5     1   ar
    13     5     4   ar
    14    22    21   ar
    15    22    18   ar
    16     1     2   ar
    17    21    20   ar
    18    14    10   ar
    19    14    13   ar
    20     4    10    1
    21     4     3   ar
    22     2     7    1
    23     2     3   ar
    24    18    13    1
    25    18    19   ar
    26    10    11   ar
    27    13    12   ar
    28     7     8    1
    29    20    19   ar
    30    20    25    1
    31     3     9    1
    32    19    23    1
    33    11    12   ar
    34    11    15    1
    35    12    17    1
    36    15    16    1
    37    23    24    1
