@<TRIPOS>MOLECULE
mol_data/opt/m06hf/geoms/mol2/5fa5fa-.out
 18 19 0 0 0
SMALL
GASTEIGER

@<TRIPOS>ATOM
      1 C          -2.0710   -1.8090   -0.0001 C.ar    1  LIG1        0.0178
      2 C          -0.7139   -1.7802   -0.0004 C.ar    1  LIG1        0.1245
      3 C          -0.1713   -0.4512    0.0001 C.ar    1  LIG1       -0.0047
      4 C          -1.1502    0.5019    0.0007 C.ar    1  LIG1        0.0330
      5 S          -2.7263   -0.2160    0.0007 S.2     1  LIG1       -0.0923
      6 H          -2.7033   -2.6800   -0.0003 H       1  LIG1        0.0730
      7 O           0.0389   -2.9161   -0.0010 O.3     1  LIG1       -0.5062
      8 H           0.9738   -2.6887   -0.0012 H       1  LIG1        0.2922
      9 H           0.8830   -0.2148   -0.0000 H       1  LIG1        0.0666
     10 C          -0.9776    1.9538    0.0013 C.ar    1  LIG1        0.0674
     11 C           0.2017    2.6448    0.0014 C.ar    1  LIG1        0.1321
     12 C           0.0333    4.0693    0.0020 C.ar    1  LIG1       -0.0125
     13 C          -1.2769    4.4232    0.0024 C.ar    1  LIG1       -0.0202
     14 S          -2.3179    3.0548    0.0019 S.2     1  LIG1       -0.0924
     15 H          -1.6919    5.4174    0.0029 H       1  LIG1        0.0695
     16 O           1.4090    2.0130    0.0009 O.3     1  LIG1       -0.5056
     17 H           2.1224    2.6585    0.0011 H       1  LIG1        0.2922
     18 H           0.8546    4.7725    0.0022 H       1  LIG1        0.0659
@<TRIPOS>BOND
     1     8     7    1
     2     7     2    1
     3     2     1   ar
     4     2     3   ar
     5     6     1    1
     6     1     5   ar
     7     9     3    1
     8     3     4   ar
     9     4     5   ar
    10     4    10    1
    11    16    17    1
    12    16    11    1
    13    10    11   ar
    14    10    14   ar
    15    11    12   ar
    16    14    13   ar
    17    12    18    1
    18    12    13   ar
    19    13    15    1
