@<TRIPOS>MOLECULE
mol_data/opt/m06hf/geoms/mol2/5fa5fa5fa.out
 26 28 0 0 0
SMALL
GASTEIGER

@<TRIPOS>ATOM
      1 C          -2.0277   -1.9033    0.0233 C.ar    1  LIG1        0.0178
      2 C          -0.6800   -1.8623   -0.1370 C.ar    1  LIG1        0.1245
      3 C          -0.1480   -0.5293   -0.1493 C.ar    1  LIG1       -0.0047
      4 C          -1.1241    0.4128    0.0107 C.ar    1  LIG1        0.0330
      5 S          -2.6845   -0.3185    0.1855 S.2     1  LIG1       -0.0923
      6 H          -2.6509   -2.7799    0.0592 H       1  LIG1        0.0730
      7 O           0.0710   -2.9913   -0.2734 O.3     1  LIG1       -0.5062
      8 H           0.9934   -2.7564   -0.4140 H       1  LIG1        0.2922
      9 H           0.8961   -0.2798   -0.2730 H       1  LIG1        0.0666
     10 C          -0.9545    1.8619    0.0541 C.ar    1  LIG1        0.0679
     11 C           0.2057    2.5489    0.2726 C.ar    1  LIG1        0.1327
     12 C           0.0461    3.9707    0.2850 C.ar    1  LIG1       -0.0041
     13 C          -1.2491    4.3432    0.0701 C.ar    1  LIG1        0.0336
     14 S          -2.2735    2.9659   -0.1794 S.2     1  LIG1       -0.0833
     15 O           1.3954    1.9103    0.4544 O.3     1  LIG1       -0.5056
     16 H           2.0502    2.5247    0.8007 H       1  LIG1        0.2922
     17 H           0.8471    4.6775    0.4456 H       1  LIG1        0.0666
     18 C          -1.7830    5.7005    0.0140 C.ar    1  LIG1        0.0674
     19 C          -1.0710    6.8565   -0.1531 C.ar    1  LIG1        0.1321
     20 C          -1.8904    8.0329   -0.1833 C.ar    1  LIG1       -0.0125
     21 C          -3.2073    7.7340   -0.0388 C.ar    1  LIG1       -0.0202
     22 S          -3.4750    6.0489    0.1540 S.2     1  LIG1       -0.0924
     23 H          -4.0400    8.4180   -0.0232 H       1  LIG1        0.0695
     24 O           0.2865    6.8562   -0.2641 O.3     1  LIG1       -0.5056
     25 H           0.5977    7.7142   -0.5697 H       1  LIG1        0.2922
     26 H          -1.5024    9.0343   -0.3052 H       1  LIG1        0.0659
@<TRIPOS>BOND
     1    25    24    1
     2     8     7    1
     3    26    20    1
     4     7     2    1
     5     9     3    1
     6    24    19    1
     7    20    19   ar
     8    20    21   ar
     9    14    10   ar
    10    14    13   ar
    11    19    18   ar
    12     3     2   ar
    13     3     4   ar
    14     2     1   ar
    15    21    23    1
    16    21    22   ar
    17     4    10    1
    18     4     5   ar
    19    18    13    1
    20    18    22   ar
    21     1     6    1
    22     1     5   ar
    23    10    11   ar
    24    13    12   ar
    25    11    12   ar
    26    11    15    1
    27    12    17    1
    28    15    16    1
