@<TRIPOS>MOLECULE
mol_data/opt/m06hf/geoms/mol2/5fa5fa5fa5fa.out
 34 37 0 0 0
SMALL
GASTEIGER

@<TRIPOS>ATOM
      1 C          -1.9932   -1.9959   -0.0066 C.ar    1  LIG1        0.0178
      2 C          -0.6365   -1.9597    0.0046 C.ar    1  LIG1        0.1245
      3 C          -0.0999   -0.6288    0.0074 C.ar    1  LIG1       -0.0047
      4 C          -1.0826    0.3214   -0.0019 C.ar    1  LIG1        0.0330
      5 S          -2.6568   -0.4046   -0.0142 S.2     1  LIG1       -0.0923
      6 H          -2.6222   -2.8691   -0.0107 H       1  LIG1        0.0730
      7 O           0.1224   -3.0921    0.0122 O.3     1  LIG1       -0.5062
      8 H           1.0559   -2.8594    0.0216 H       1  LIG1        0.2922
      9 H           0.9531   -0.3899    0.0158 H       1  LIG1        0.0666
     10 C          -0.9144    1.7716   -0.0022 C.ar    1  LIG1        0.0679
     11 C           0.2627    2.4663    0.0084 C.ar    1  LIG1        0.1327
     12 C           0.1024    3.8867    0.0053 C.ar    1  LIG1       -0.0041
     13 C          -1.2126    4.2566   -0.0079 C.ar    1  LIG1        0.0336
     14 S          -2.2576    2.8717   -0.0165 S.2     1  LIG1       -0.0833
     15 O           1.4718    1.8389    0.0208 O.3     1  LIG1       -0.5056
     16 H           2.1787    2.4917    0.0263 H       1  LIG1        0.2922
     17 H           0.9152    4.5971    0.0125 H       1  LIG1        0.0666
     18 C          -1.7483    5.6118   -0.0146 C.ar    1  LIG1        0.0680
     19 C          -1.0347    6.7788   -0.0109 C.ar    1  LIG1        0.1327
     20 C          -1.8431    7.9572   -0.0197 C.ar    1  LIG1       -0.0041
     21 C          -3.1777    7.6635   -0.0301 C.ar    1  LIG1        0.0336
     22 S          -3.4513    5.9534   -0.0291 S.2     1  LIG1       -0.0833
     23 O           0.3266    6.7889    0.0004 O.3     1  LIG1       -0.5056
     24 H           0.6528    7.6945   -0.0012 H       1  LIG1        0.2922
     25 H          -1.4591    8.9665   -0.0186 H       1  LIG1        0.0666
     26 C          -4.2922    8.6062   -0.0409 C.ar    1  LIG1        0.0674
     27 C          -4.2100    9.9724   -0.0397 C.ar    1  LIG1        0.1321
     28 C          -5.4868   10.6235   -0.0519 C.ar    1  LIG1       -0.0125
     29 C          -6.5083    9.7284   -0.0620 C.ar    1  LIG1       -0.0202
     30 S          -5.9517    8.1044   -0.0574 S.2     1  LIG1       -0.0924
     31 H          -7.5658    9.9345   -0.0723 H       1  LIG1        0.0695
     32 O          -3.0134   10.6215   -0.0284 O.3     1  LIG1       -0.5056
     33 H          -3.1491   11.5743   -0.0186 H       1  LIG1        0.2922
     34 H          -5.6167   11.6969   -0.0532 H       1  LIG1        0.0659
@<TRIPOS>BOND
     1    31    29    1
     2    29    30   ar
     3    29    28   ar
     4    30    26   ar
     5    34    28    1
     6    28    27   ar
     7    26    27   ar
     8    26    21    1
     9    27    32    1
    10    21    22   ar
    11    21    20   ar
    12    22    18   ar
    13    32    33    1
    14    20    25    1
    15    20    19   ar
    16    14    13   ar
    17    14    10   ar
    18    18    19   ar
    19    18    13    1
    20     5     1   ar
    21     5     4   ar
    22    19    23    1
    23     6     1    1
    24    13    12   ar
    25     1     2   ar
    26    10     4    1
    27    10    11   ar
    28     4     3   ar
    29    24    23    1
    30     2     3   ar
    31     2     7    1
    32    12    11   ar
    33    12    17    1
    34     3     9    1
    35    11    15    1
    36     7     8    1
    37    15    16    1
