@<TRIPOS>MOLECULE
mol_data/opt/m06hf/geoms/mol2/5fa5fa-5fa5fa.out
 34 37 0 0 0
SMALL
GASTEIGER

@<TRIPOS>ATOM
      1 C          -1.9931   -1.9959   -0.0061 C.ar    1  LIG1        0.0178
      2 C          -0.6364   -1.9596   -0.0052 C.ar    1  LIG1        0.1245
      3 C          -0.0998   -0.6287   -0.0025 C.ar    1  LIG1       -0.0047
      4 C          -1.0826    0.3214   -0.0015 C.ar    1  LIG1        0.0330
      5 S          -2.6568   -0.4046   -0.0038 S.2     1  LIG1       -0.0923
      6 H          -2.6221   -2.8692   -0.0081 H       1  LIG1        0.0730
      7 O           0.1226   -3.0921   -0.0066 O.3     1  LIG1       -0.5062
      8 H           1.0561   -2.8593   -0.0055 H       1  LIG1        0.2922
      9 H           0.9532   -0.3898   -0.0013 H       1  LIG1        0.0666
     10 C          -0.9144    1.7716    0.0013 C.ar    1  LIG1        0.0679
     11 C           0.2627    2.4663    0.0042 C.ar    1  LIG1        0.1327
     12 C           0.1024    3.8867    0.0066 C.ar    1  LIG1       -0.0041
     13 C          -1.2127    4.2566    0.0054 C.ar    1  LIG1        0.0336
     14 S          -2.2578    2.8717    0.0012 S.2     1  LIG1       -0.0833
     15 O           1.4719    1.8390    0.0047 O.3     1  LIG1       -0.5056
     16 H           2.1788    2.4918    0.0067 H       1  LIG1        0.2922
     17 H           0.9152    4.5971    0.0091 H       1  LIG1        0.0666
     18 C          -1.7485    5.6118    0.0072 C.ar    1  LIG1        0.0680
     19 C          -1.0349    6.7788    0.0090 C.ar    1  LIG1        0.1327
     20 C          -1.8434    7.9572    0.0103 C.ar    1  LIG1       -0.0041
     21 C          -3.1780    7.6635    0.0095 C.ar    1  LIG1        0.0336
     22 S          -3.4516    5.9533    0.0073 S.2     1  LIG1       -0.0833
     23 O           0.3264    6.7890    0.0094 O.3     1  LIG1       -0.5056
     24 H           0.6526    7.6946    0.0105 H       1  LIG1        0.2922
     25 H          -1.4594    8.9665    0.0116 H       1  LIG1        0.0666
     26 C          -4.2926    8.6062    0.0103 C.ar    1  LIG1        0.0674
     27 C          -4.2103    9.9723    0.0140 C.ar    1  LIG1        0.1321
     28 C          -5.4872   10.6234    0.0140 C.ar    1  LIG1       -0.0125
     29 C          -6.5088    9.7283    0.0103 C.ar    1  LIG1       -0.0202
     30 S          -5.9522    8.1044    0.0068 S.2     1  LIG1       -0.0924
     31 H          -7.5663    9.9345    0.0094 H       1  LIG1        0.0695
     32 O          -3.0137   10.6213    0.0170 O.3     1  LIG1       -0.5056
     33 H          -3.1493   11.5742    0.0243 H       1  LIG1        0.2922
     34 H          -5.6171   11.6969    0.0164 H       1  LIG1        0.0659
@<TRIPOS>BOND
     1     6     1    1
     2     7     8    1
     3     7     2    1
     4     1     2   ar
     5     1     5   ar
     6     2     3   ar
     7     5     4   ar
     8     3     4   ar
     9     3     9    1
    10     4    10    1
    11    14    10   ar
    12    14    13   ar
    13    10    11   ar
    14    11    15    1
    15    11    12   ar
    16    15    16    1
    17    13    12   ar
    18    13    18    1
    19    12    17    1
    20    30    29   ar
    21    30    26   ar
    22    18    22   ar
    23    18    19   ar
    24    22    21   ar
    25    19    23    1
    26    19    20   ar
    27    23    24    1
    28    31    29    1
    29    21    20   ar
    30    21    26    1
    31    20    25    1
    32    29    28   ar
    33    26    27   ar
    34    28    27   ar
    35    28    34    1
    36    27    32    1
    37    32    33    1
