@<TRIPOS>MOLECULE
mol_data/opt/m06hf/geoms/mol2/5fd.out
 11 11 0 0 0
SMALL
GASTEIGER

@<TRIPOS>ATOM
      1 C          -2.0916   -1.7239    0.0001 C.ar    1  LIG1        0.0185
      2 C          -0.7339   -1.6870   -0.0004 C.ar    1  LIG1        0.1411
      3 C          -0.2345   -0.3345   -0.0002 C.ar    1  LIG1        0.1001
      4 C          -1.2294    0.6001    0.0005 C.ar    1  LIG1       -0.0033
      5 S          -2.7659   -0.1404    0.0003 S.2     1  LIG1       -0.1000
      6 H          -2.7127   -2.6031    0.0001 H       1  LIG1        0.0730
      7 H          -1.1170    1.6719    0.0009 H       1  LIG1        0.0707
      8 O           0.0525   -2.7855   -0.0009 O.3     1  LIG1       -0.5049
      9 H           0.9861   -2.5380   -0.0012 H       1  LIG1        0.2922
     10 N           2.3206    0.0470   -0.0009 N.1     1  LIG1       -0.1907
     11 C           1.1781   -0.0695   -0.0006 C.1     1  LIG1        0.1034
@<TRIPOS>BOND
     1     9     8    1
     2     8     2    1
     3    10    11    3
     4    11     3    1
     5     2     3   ar
     6     2     1   ar
     7     3     4   ar
     8     1     6    1
     9     1     5   ar
    10     5     4   ar
    11     4     7    1
