@<TRIPOS>MOLECULE
mol_data/opt/m06hf/geoms/mol2/5fd5fd-5fd-5fd.out
 38 41 0 0 0
SMALL
GASTEIGER

@<TRIPOS>ATOM
      1 C          -1.9026   -1.9999    0.2598 C.ar    1  LIG1        0.0191
      2 C          -0.6049   -1.8729    0.6379 C.ar    1  LIG1        0.1418
      3 C          -0.1358   -0.5157    0.5235 C.ar    1  LIG1        0.1084
      4 C          -1.0927    0.3457    0.0525 C.ar    1  LIG1        0.0505
      5 S          -2.5604   -0.4949   -0.2603 S.2     1  LIG1       -0.0910
      6 H          -2.4924   -2.9005    0.2637 H       1  LIG1        0.0731
      7 O           0.1502   -2.8969    1.0881 O.3     1  LIG1       -0.5049
      8 H           1.0428   -2.5976    1.3039 H       1  LIG1        0.2922
      9 N           2.2646    0.0007    1.3172 N.1     1  LIG1       -0.1907
     10 C           1.1923   -0.1679    0.9418 C.1     1  LIG1        0.1040
     11 C          -0.9510    1.7778   -0.1847 C.ar    1  LIG1        0.0705
     12 C           0.1230    2.4027   -0.7519 C.ar    1  LIG1        0.1501
     13 C          -0.0594    3.8251   -0.8423 C.ar    1  LIG1        0.1090
     14 C          -1.2669    4.2444   -0.3461 C.ar    1  LIG1        0.0511
     15 S          -2.1806    2.9184    0.2546 S.2     1  LIG1       -0.0820
     16 O           1.1934    1.7397   -1.2164 O.3     1  LIG1       -0.5043
     17 H           1.9085    2.3426   -1.4584 H       1  LIG1        0.2922
     18 N           1.7729    5.2311   -1.9941 N.1     1  LIG1       -0.1907
     19 C           0.9324    4.6539   -1.4662 C.1     1  LIG1        0.1040
     20 C          -1.7522    5.6172   -0.2685 C.ar    1  LIG1        0.0705
     21 C          -1.0291    6.7009    0.1420 C.ar    1  LIG1        0.1501
     22 C          -1.7943    7.9163    0.0934 C.ar    1  LIG1        0.1090
     23 C          -3.0828    7.7237   -0.3344 C.ar    1  LIG1        0.0511
     24 S          -3.3762    6.0645   -0.6861 S.2     1  LIG1       -0.0820
     25 O           0.2430    6.6150    0.5552 O.3     1  LIG1       -0.5043
     26 H           0.6293    7.4875    0.7112 H       1  LIG1        0.2922
     27 N          -0.5926   10.1214    0.6854 N.1     1  LIG1       -0.1907
     28 C          -1.1823    9.1725    0.4199 C.1     1  LIG1        0.1040
     29 C          -4.1202    8.7374   -0.4840 C.ar    1  LIG1        0.0699
     30 C          -4.3800    9.7559    0.3901 C.ar    1  LIG1        0.1494
     31 C          -5.4681   10.5836   -0.0576 C.ar    1  LIG1        0.1007
     32 C          -5.9990   10.1648   -1.2430 C.ar    1  LIG1       -0.0027
     33 S          -5.1992    8.7819   -1.8410 S.2     1  LIG1       -0.0910
     34 H          -6.8178   10.6136   -1.7817 H       1  LIG1        0.0708
     35 O          -3.7117    9.9190    1.5412 O.3     1  LIG1       -0.5043
     36 H          -3.9411   10.7506    1.9768 H       1  LIG1        0.2922
     37 N          -6.2038   12.5913    1.3926 N.1     1  LIG1       -0.1907
     38 C          -5.9095   11.7109    0.7173 C.1     1  LIG1        0.1034
@<TRIPOS>BOND
     1    18    19    3
     2    33    32   ar
     3    33    29   ar
     4    34    32    1
     5    19    13    1
     6    17    16    1
     7    32    31   ar
     8    16    12    1
     9    13    12   ar
    10    13    14   ar
    11    12    11   ar
    12    24    23   ar
    13    24    20   ar
    14    29    23    1
    15    29    30   ar
    16    14    20    1
    17    14    15   ar
    18    23    22   ar
    19    20    21   ar
    20     5     4   ar
    21     5     1   ar
    22    11     4    1
    23    11    15   ar
    24    31    30   ar
    25    31    38    1
    26     4     3   ar
    27    22    21   ar
    28    22    28    1
    29    21    25    1
    30     1     6    1
    31     1     2   ar
    32    30    35    1
    33    28    27    3
    34     3     2   ar
    35     3    10    1
    36    25    26    1
    37     2     7    1
    38    38    37    3
    39    10     9    3
    40     7     8    1
    41    35    36    1
