@<TRIPOS>MOLECULE
mol_data/opt/m06hf/geoms/mol2/5fd5fd-5fd-5fd-.out
 38 41 0 0 0
SMALL
GASTEIGER

@<TRIPOS>ATOM
      1 C          -1.8170   -2.0512   -0.2054 C.ar    1  LIG1        0.0191
      2 C          -0.5216   -1.9502    0.1893 C.ar    1  LIG1        0.1418
      3 C          -0.0792   -0.5813    0.2570 C.ar    1  LIG1        0.1084
      4 C          -1.0529    0.3159   -0.0997 C.ar    1  LIG1        0.0505
      5 S          -2.5039   -0.5037   -0.5223 S.2     1  LIG1       -0.0910
      6 H          -2.3885   -2.9557   -0.3226 H       1  LIG1        0.0731
      7 O           0.2553   -3.0102    0.4963 O.3     1  LIG1       -0.5049
      8 H           1.1354   -2.7237    0.7726 H       1  LIG1        0.2922
      9 N           2.3105   -0.1263    1.1181 N.1     1  LIG1       -0.1907
     10 C           1.2420   -0.2660    0.7207 C.1     1  LIG1        0.1040
     11 C          -0.9354    1.7682   -0.1658 C.ar    1  LIG1        0.0705
     12 C           0.1241    2.4716   -0.6647 C.ar    1  LIG1        0.1501
     13 C          -0.0915    3.8915   -0.6159 C.ar    1  LIG1        0.1090
     14 C          -1.3085    4.2331   -0.0834 C.ar    1  LIG1        0.0511
     15 S          -2.1910    2.8309    0.3840 S.2     1  LIG1       -0.0820
     16 O           1.2092    1.8839   -1.1914 O.3     1  LIG1       -0.5043
     17 H           1.8995    2.5285   -1.3951 H       1  LIG1        0.2922
     18 N           1.7066    5.4320   -1.6430 N.1     1  LIG1       -0.1907
     19 C           0.8796    4.7955   -1.1642 C.1     1  LIG1        0.1040
     20 C          -1.8341    5.5782    0.1108 C.ar    1  LIG1        0.0705
     21 C          -1.1378    6.6555    0.5835 C.ar    1  LIG1        0.1501
     22 C          -1.9510    7.8372    0.6603 C.ar    1  LIG1        0.1090
     23 C          -3.2418    7.6301    0.2460 C.ar    1  LIG1        0.0511
     24 S          -3.4765    6.0029   -0.2574 S.2     1  LIG1       -0.0820
     25 O           0.1423    6.5833    0.9740 O.3     1  LIG1       -0.5043
     26 H           0.4990    7.4540    1.1941 H       1  LIG1        0.2922
     27 N          -0.9133    9.9829    1.6510 N.1     1  LIG1       -0.1907
     28 C          -1.4199    9.0587    1.1958 C.1     1  LIG1        0.1040
     29 C          -4.3084    8.6228    0.1809 C.ar    1  LIG1        0.0699
     30 C          -4.1818    9.9010   -0.2872 C.ar    1  LIG1        0.1494
     31 C          -5.4227   10.6252   -0.2136 C.ar    1  LIG1        0.1007
     32 C          -6.4427    9.8763    0.2973 C.ar    1  LIG1       -0.0027
     33 S          -5.9301    8.3016    0.7030 S.2     1  LIG1       -0.0910
     34 H          -7.4627   10.1886    0.4533 H       1  LIG1        0.0708
     35 O          -3.0365   10.3858   -0.7882 O.3     1  LIG1       -0.5043
     36 H          -3.0882   11.3371   -0.9489 H       1  LIG1        0.2922
     37 N          -5.5057   13.0719   -1.0390 N.1     1  LIG1       -0.1907
     38 C          -5.5137   11.9882   -0.6599 C.1     1  LIG1        0.1034
@<TRIPOS>BOND
     1    18    19    3
     2    17    16    1
     3    16    12    1
     4    19    13    1
     5    37    38    3
     6    36    35    1
     7    35    30    1
     8    12    13   ar
     9    12    11   ar
    10    38    31    1
    11    13    14   ar
    12     5     1   ar
    13     5     4   ar
    14     6     1    1
    15    30    31   ar
    16    30    29   ar
    17    24    20   ar
    18    24    23   ar
    19    31    32   ar
    20     1     2   ar
    21    11     4    1
    22    11    15   ar
    23     4     3   ar
    24    14    20    1
    25    14    15   ar
    26    20    21   ar
    27    29    23    1
    28    29    33   ar
    29     2     3   ar
    30     2     7    1
    31    23    22   ar
    32     3    10    1
    33    32    34    1
    34    32    33   ar
    35     7     8    1
    36    21    22   ar
    37    21    25    1
    38    22    28    1
    39    10     9    3
    40    25    26    1
    41    28    27    3
