@<TRIPOS>MOLECULE
mol_data/opt/m06hf/geoms/mol2/5fd5fd-5fd-.out
 29 31 0 0 0
SMALL
GASTEIGER

@<TRIPOS>ATOM
      1 C          -1.9014   -1.9551   -0.2692 C.ar    1  LIG1        0.0191
      2 C          -0.6695   -1.8439    0.2908 C.ar    1  LIG1        0.1418
      3 C          -0.2219   -0.4764    0.3483 C.ar    1  LIG1        0.1084
      4 C          -1.1263    0.4081   -0.1796 C.ar    1  LIG1        0.0505
      5 S          -2.5165   -0.4211   -0.7562 S.2     1  LIG1       -0.0910
      6 H          -2.4642   -2.8605   -0.4180 H       1  LIG1        0.0731
      7 O           0.0447   -2.8917    0.7531 O.3     1  LIG1       -0.5049
      8 H           0.8747   -2.5941    1.1470 H       1  LIG1        0.2922
      9 N           2.0343    0.0236    1.4975 N.1     1  LIG1       -0.1907
     10 C           1.0284   -0.1407    0.9681 C.1     1  LIG1        0.1040
     11 C          -0.9784    1.8558   -0.2842 C.ar    1  LIG1        0.0705
     12 C           0.1466    2.5249   -0.6739 C.ar    1  LIG1        0.1501
     13 C          -0.0383    3.9495   -0.6745 C.ar    1  LIG1        0.1090
     14 C          -1.2965    4.3284   -0.2834 C.ar    1  LIG1        0.0511
     15 S          -2.2607    2.9575    0.1040 S.2     1  LIG1       -0.0820
     16 O           1.2693    1.9016   -1.0654 O.3     1  LIG1       -0.5043
     17 H           2.0123    2.5154   -1.1328 H       1  LIG1        0.2922
     18 N           1.8908    5.4462   -1.5125 N.1     1  LIG1       -0.1907
     19 C           1.0072    4.8250   -1.1231 C.1     1  LIG1        0.1040
     20 C          -1.8038    5.6906   -0.1611 C.ar    1  LIG1        0.0699
     21 C          -1.1316    6.7512    0.3787 C.ar    1  LIG1        0.1494
     22 C          -1.9147    7.9577    0.3448 C.ar    1  LIG1        0.1007
     23 C          -3.1490    7.7720   -0.2059 C.ar    1  LIG1       -0.0027
     24 S          -3.3843    6.1564   -0.6998 S.2     1  LIG1       -0.0910
     25 H          -3.9166    8.5162   -0.3450 H       1  LIG1        0.0708
     26 O           0.0949    6.6450    0.9116 O.3     1  LIG1       -0.5043
     27 H           0.4856    7.5099    1.0925 H       1  LIG1        0.2922
     28 N          -0.9047   10.1459    1.2759 N.1     1  LIG1       -0.1907
     29 C          -1.3928    9.1958    0.8550 C.1     1  LIG1        0.1034
@<TRIPOS>BOND
     1    18    19    3
     2    17    16    1
     3    19    13    1
     4    16    12    1
     5     5     1   ar
     6     5     4   ar
     7    24    23   ar
     8    24    20   ar
     9    13    12   ar
    10    13    14   ar
    11    12    11   ar
    12     6     1    1
    13    25    23    1
    14    11     4    1
    15    11    15   ar
    16    14    20    1
    17    14    15   ar
    18     1     2   ar
    19    23    22   ar
    20     4     3   ar
    21    20    21   ar
    22     2     3   ar
    23     2     7    1
    24    22    21   ar
    25    22    29    1
    26     3    10    1
    27    21    26    1
    28     7     8    1
    29    29    28    3
    30    26    27    1
    31    10     9    3
