@<TRIPOS>MOLECULE
mol_data/opt/m06hf/geoms/mol2/5fd5fd-5fd5fd.out
 38 41 0 0 0
SMALL
GASTEIGER

@<TRIPOS>ATOM
      1 C          -1.8190   -2.0510    0.2169 C.ar    1  LIG1        0.0191
      2 C          -0.5232   -1.9508   -0.1766 C.ar    1  LIG1        0.1418
      3 C          -0.0804   -0.5820   -0.2453 C.ar    1  LIG1        0.1084
      4 C          -1.0543    0.3158    0.1095 C.ar    1  LIG1        0.0505
      5 S          -2.5058   -0.5030    0.5316 S.2     1  LIG1       -0.0910
      6 H          -2.3908   -2.9552    0.3345 H       1  LIG1        0.0731
      7 O           0.2537   -3.0113   -0.4817 O.3     1  LIG1       -0.5049
      8 H           1.1342   -2.7253   -0.7574 H       1  LIG1        0.2922
      9 N           2.3102   -0.1285   -1.1045 N.1     1  LIG1       -0.1907
     10 C           1.2414   -0.2676   -0.7080 C.1     1  LIG1        0.1040
     11 C          -0.9364    1.7682    0.1742 C.ar    1  LIG1        0.0705
     12 C           0.1228    2.4717    0.6735 C.ar    1  LIG1        0.1501
     13 C          -0.0924    3.8917    0.6230 C.ar    1  LIG1        0.1090
     14 C          -1.3088    4.2330    0.0889 C.ar    1  LIG1        0.0511
     15 S          -2.1912    2.8306   -0.3779 S.2     1  LIG1       -0.0820
     16 O           1.2072    1.8844    1.2018 O.3     1  LIG1       -0.5043
     17 H           1.8975    2.5290    1.4056 H       1  LIG1        0.2922
     18 N           1.7051    5.4327    1.6502 N.1     1  LIG1       -0.1907
     19 C           0.8784    4.7960    1.1713 C.1     1  LIG1        0.1040
     20 C          -1.8339    5.5781   -0.1072 C.ar    1  LIG1        0.0705
     21 C          -1.1369    6.6547   -0.5803 C.ar    1  LIG1        0.1501
     22 C          -1.9497    7.8365   -0.6591 C.ar    1  LIG1        0.1090
     23 C          -3.2409    7.6302   -0.2459 C.ar    1  LIG1        0.0511
     24 S          -3.4766    6.0036    0.2589 S.2     1  LIG1       -0.0820
     25 O           0.1436    6.5818   -0.9694 O.3     1  LIG1       -0.5043
     26 H           0.5008    7.4522   -1.1902 H       1  LIG1        0.2922
     27 N          -0.9104    9.9810   -1.6510 N.1     1  LIG1       -0.1907
     28 C          -1.4177    9.0573   -1.1953 C.1     1  LIG1        0.1040
     29 C          -4.3073    8.6232   -0.1829 C.ar    1  LIG1        0.0699
     30 C          -4.1809    9.9019    0.2840 C.ar    1  LIG1        0.1494
     31 C          -5.4215   10.6263    0.2084 C.ar    1  LIG1        0.1007
     32 C          -6.4412    9.8771   -0.3027 C.ar    1  LIG1       -0.0027
     33 S          -5.9286    8.3018   -0.7063 S.2     1  LIG1       -0.0910
     34 H          -7.4610   10.1896   -0.4600 H       1  LIG1        0.0708
     35 O          -3.0360   10.3869    0.7857 O.3     1  LIG1       -0.5043
     36 H          -3.0876   11.3383    0.9453 H       1  LIG1        0.2922
     37 N          -5.5048   13.0738    1.0313 N.1     1  LIG1       -0.1907
     38 C          -5.5126   11.9898    0.6532 C.1     1  LIG1        0.1034
@<TRIPOS>BOND
     1    27    28    3
     2    28    22    1
     3    26    25    1
     4     9    10    3
     5    25    21    1
     6     8     7    1
     7    10     3    1
     8    33    32   ar
     9    33    29   ar
    10    22    21   ar
    11    22    23   ar
    12    21    20   ar
    13     7     2    1
    14    34    32    1
    15    15    14   ar
    16    15    11   ar
    17    32    31   ar
    18    23    29    1
    19    23    24   ar
    20     3     2   ar
    21     3     4   ar
    22    29    30   ar
    23     2     1   ar
    24    20    14    1
    25    20    24   ar
    26    14    13   ar
    27     4    11    1
    28     4     5   ar
    29    11    12   ar
    30    31    30   ar
    31    31    38    1
    32     1     6    1
    33     1     5   ar
    34    30    35    1
    35    13    12   ar
    36    13    19    1
    37    38    37    3
    38    12    16    1
    39    35    36    1
    40    19    18    3
    41    16    17    1
