@<TRIPOS>MOLECULE
mol_data/opt/m06hf/geoms/mol2/5fd5fd5fd5fd-.out
 38 41 0 0 0
SMALL
GASTEIGER

@<TRIPOS>ATOM
      1 C          -1.8012   -2.0477    0.2865 C.ar    1  LIG1        0.0191
      2 C          -0.5105   -1.9501   -0.1238 C.ar    1  LIG1        0.1418
      3 C          -0.0714   -0.5815   -0.2159 C.ar    1  LIG1        0.1084
      4 C          -1.0429    0.3190    0.1386 C.ar    1  LIG1        0.0505
      5 S          -2.4876   -0.4971    0.5888 S.2     1  LIG1       -0.0910
      6 H          -2.3697   -2.9514    0.4228 H       1  LIG1        0.0731
      7 O           0.2651   -3.0130   -0.4242 O.3     1  LIG1       -0.5049
      8 H           1.1416   -2.7289   -0.7142 H       1  LIG1        0.2922
      9 N           2.3078   -0.1347   -1.1096 N.1     1  LIG1       -0.1907
     10 C           1.2440   -0.2706   -0.6985 C.1     1  LIG1        0.1040
     11 C          -0.9275    1.7723    0.1828 C.ar    1  LIG1        0.0705
     12 C           0.1361    2.4845    0.6600 C.ar    1  LIG1        0.1501
     13 C          -0.0828    3.9033    0.5933 C.ar    1  LIG1        0.1090
     14 C          -1.3062    4.2351    0.0694 C.ar    1  LIG1        0.0511
     15 S          -2.1911    2.8249   -0.3683 S.2     1  LIG1       -0.0820
     16 O           1.2280    1.9064    1.1830 O.3     1  LIG1       -0.5043
     17 H           1.9193    2.5550    1.3700 H       1  LIG1        0.2922
     18 N           1.7235    5.4614    1.5785 N.1     1  LIG1       -0.1907
     19 C           0.8925    4.8168    1.1180 C.1     1  LIG1        0.1040
     20 C          -1.8364    5.5764   -0.1382 C.ar    1  LIG1        0.0705
     21 C          -1.1475    6.6480   -0.6338 C.ar    1  LIG1        0.1501
     22 C          -1.9638    7.8271   -0.7185 C.ar    1  LIG1        0.1090
     23 C          -3.2495    7.6236   -0.2871 C.ar    1  LIG1        0.0511
     24 S          -3.4756    6.0034    0.2419 S.2     1  LIG1       -0.0820
     25 O           0.1284    6.5725   -1.0372 O.3     1  LIG1       -0.5043
     26 H           0.4810    7.4406   -1.2737 H       1  LIG1        0.2922
     27 N          -0.9410    9.9603   -1.7510 N.1     1  LIG1       -0.1907
     28 C          -1.4409    9.0417   -1.2771 C.1     1  LIG1        0.1040
     29 C          -4.3172    8.6153   -0.2244 C.ar    1  LIG1        0.0699
     30 C          -4.1880    9.9003    0.2239 C.ar    1  LIG1        0.1494
     31 C          -5.4310   10.6212    0.1537 C.ar    1  LIG1        0.1007
     32 C          -6.4551    9.8632   -0.3353 C.ar    1  LIG1       -0.0027
     33 S          -5.9439    8.2838   -0.7241 S.2     1  LIG1       -0.0910
     34 H          -7.4773   10.1715   -0.4845 H       1  LIG1        0.0708
     35 O          -3.0382   10.3941    0.7055 O.3     1  LIG1       -0.5043
     36 H          -3.0899   11.3475    0.8531 H       1  LIG1        0.2922
     37 N          -5.5097   13.0791    0.9451 N.1     1  LIG1       -0.1907
     38 C          -5.5197   11.9902    0.5815 C.1     1  LIG1        0.1034
@<TRIPOS>BOND
     1    27    28    3
     2    28    22    1
     3    26    25    1
     4     9    10    3
     5    25    21    1
     6    33    32   ar
     7    33    29   ar
     8    22    21   ar
     9    22    23   ar
    10     8     7    1
    11    10     3    1
    12    21    20   ar
    13    34    32    1
    14     7     2    1
    15    15    14   ar
    16    15    11   ar
    17    32    31   ar
    18    23    29    1
    19    23    24   ar
    20    29    30   ar
    21     3     2   ar
    22     3     4   ar
    23    20    14    1
    24    20    24   ar
    25     2     1   ar
    26    14    13   ar
    27     4    11    1
    28     4     5   ar
    29    31    30   ar
    30    31    38    1
    31    11    12   ar
    32    30    35    1
    33     1     6    1
    34     1     5   ar
    35    38    37    3
    36    13    12   ar
    37    13    19    1
    38    12    16    1
    39    35    36    1
    40    19    18    3
    41    16    17    1
