@<TRIPOS>MOLECULE
mol_data/opt/m06hf/geoms/mol2/5fd5fd5fd5fd.out
 38 41 0 0 0
SMALL
GASTEIGER

@<TRIPOS>ATOM
      1 C          -1.8090   -2.0485    0.2709 C.ar    1  LIG1        0.0191
      2 C          -0.5158   -1.9509   -0.1315 C.ar    1  LIG1        0.1418
      3 C          -0.0751   -0.5824   -0.2173 C.ar    1  LIG1        0.1084
      4 C          -1.0478    0.3180    0.1339 C.ar    1  LIG1        0.0505
      5 S          -2.4958   -0.4980    0.5734 S.2     1  LIG1       -0.0910
      6 H          -2.3790   -2.9520    0.4015 H       1  LIG1        0.0731
      7 O           0.2606   -3.0136   -0.4302 O.3     1  LIG1       -0.5049
      8 H           1.1390   -2.7295   -0.7143 H       1  LIG1        0.2922
      9 N           2.3098   -0.1352   -1.0958 N.1     1  LIG1       -0.1907
     10 C           1.2435   -0.2713   -0.6913 C.1     1  LIG1        0.1040
     11 C          -0.9314    1.7711    0.1826 C.ar    1  LIG1        0.0705
     12 C           0.1300    2.4811    0.6680 C.ar    1  LIG1        0.1501
     13 C          -0.0873    3.9002    0.6038 C.ar    1  LIG1        0.1090
     14 C          -1.3073    4.2345    0.0736 C.ar    1  LIG1        0.0511
     15 S          -2.1908    2.8262   -0.3731 S.2     1  LIG1       -0.0820
     16 O           1.2183    1.9006    1.1959 O.3     1  LIG1       -0.5043
     17 H           1.9090    2.5481    1.3886 H       1  LIG1        0.2922
     18 N           1.7145    5.4541    1.6038 N.1     1  LIG1       -0.1907
     19 C           0.8857    4.8114    1.1366 C.1     1  LIG1        0.1040
     20 C          -1.8352    5.5768   -0.1335 C.ar    1  LIG1        0.0705
     21 C          -1.1424    6.6491   -0.6222 C.ar    1  LIG1        0.1501
     22 C          -1.9572    7.8291   -0.7085 C.ar    1  LIG1        0.1090
     23 C          -3.2456    7.6256   -0.2852 C.ar    1  LIG1        0.0511
     24 S          -3.4762    6.0042    0.2381 S.2     1  LIG1       -0.0820
     25 O           0.1357    6.5736   -1.0183 O.3     1  LIG1       -0.5043
     26 H           0.4905    7.4420   -1.2504 H       1  LIG1        0.2922
     27 N          -0.9265    9.9642   -1.7293 N.1     1  LIG1       -0.1907
     28 C          -1.4300    9.0448   -1.2608 C.1     1  LIG1        0.1040
     29 C          -4.3128    8.6181   -0.2262 C.ar    1  LIG1        0.0699
     30 C          -4.1851    9.9017    0.2263 C.ar    1  LIG1        0.1494
     31 C          -5.4271   10.6239    0.1507 C.ar    1  LIG1        0.1007
     32 C          -6.4490    9.8681   -0.3463 C.ar    1  LIG1       -0.0027
     33 S          -5.9368    8.2893   -0.7363 S.2     1  LIG1       -0.0910
     34 H          -7.4700   10.1777   -0.5006 H       1  LIG1        0.0708
     35 O          -3.0378   10.3933    0.7159 O.3     1  LIG1       -0.5043
     36 H          -3.0896   11.3463    0.8658 H       1  LIG1        0.2922
     37 N          -5.5083   13.0798    0.9482 N.1     1  LIG1       -0.1907
     38 C          -5.5171   11.9918    0.5816 C.1     1  LIG1        0.1034
@<TRIPOS>BOND
     1    27    28    3
     2    28    22    1
     3    26    25    1
     4     9    10    3
     5    25    21    1
     6    33    32   ar
     7    33    29   ar
     8     8     7    1
     9    22    21   ar
    10    22    23   ar
    11    10     3    1
    12    21    20   ar
    13    34    32    1
    14     7     2    1
    15    15    14   ar
    16    15    11   ar
    17    32    31   ar
    18    23    29    1
    19    23    24   ar
    20    29    30   ar
    21     3     2   ar
    22     3     4   ar
    23    20    14    1
    24    20    24   ar
    25     2     1   ar
    26    14    13   ar
    27     4    11    1
    28     4     5   ar
    29    31    30   ar
    30    31    38    1
    31    11    12   ar
    32    30    35    1
    33     1     6    1
    34     1     5   ar
    35    38    37    3
    36    13    12   ar
    37    13    19    1
    38    12    16    1
    39    35    36    1
    40    19    18    3
    41    16    17    1
