@<TRIPOS>MOLECULE
mol_data/opt/m06hf/geoms/mol2/5fd5fd.out
 20 21 0 0 0
SMALL
GASTEIGER

@<TRIPOS>ATOM
      1 C          -2.0101   -1.7946    0.5149 C.ar    1  LIG1        0.0191
      2 C          -0.7227   -1.7982    0.0819 C.ar    1  LIG1        0.1418
      3 C          -0.2367   -0.4688   -0.1817 C.ar    1  LIG1        0.1084
      4 C          -1.1691    0.5045    0.0675 C.ar    1  LIG1        0.0504
      5 S          -2.6358   -0.1937    0.6277 S.2     1  LIG1       -0.0910
      6 H          -2.6095   -2.6521    0.7673 H       1  LIG1        0.0731
      7 O           0.0078   -2.9187   -0.1015 O.3     1  LIG1       -0.5049
      8 H           0.9033   -2.6999   -0.3889 H       1  LIG1        0.2922
      9 N           2.1451   -0.1922   -1.1383 N.1     1  LIG1       -0.1907
     10 C           1.0825   -0.2574   -0.7075 C.1     1  LIG1        0.1040
     11 C          -0.9924    1.9461   -0.0805 C.ar    1  LIG1        0.0699
     12 C           0.1044    2.6651    0.3011 C.ar    1  LIG1        0.1494
     13 C          -0.0325    4.0636   -0.0093 C.ar    1  LIG1        0.1007
     14 C          -1.2244    4.3597   -0.6037 C.ar    1  LIG1       -0.0027
     15 S          -2.1895    2.9671   -0.8077 S.2     1  LIG1       -0.0911
     16 H          -1.5645    5.3297   -0.9283 H       1  LIG1        0.0708
     17 O           1.1569    2.1175    0.9321 O.3     1  LIG1       -0.5043
     18 H           1.9259    2.7019    0.9157 H       1  LIG1        0.2922
     19 N           1.8883    5.6879    0.5800 N.1     1  LIG1       -0.1907
     20 C           1.0111    5.0011    0.3042 C.1     1  LIG1        0.1034
@<TRIPOS>BOND
     1     9    10    3
     2    16    14    1
     3    15    14   ar
     4    15    11   ar
     5    10     3    1
     6    14    13   ar
     7     8     7    1
     8     3     4   ar
     9     3     2   ar
    10     7     2    1
    11    11     4    1
    12    11    12   ar
    13    13    12   ar
    14    13    20    1
    15     4     5   ar
    16     2     1   ar
    17    12    17    1
    18    20    19    3
    19     1     5   ar
    20     1     6    1
    21    18    17    1
