@<TRIPOS>MOLECULE
mol_data/opt/m06hf/geoms/mol2/5fd5fd5fd-.out
 29 31 0 0 0
SMALL
GASTEIGER

@<TRIPOS>ATOM
      1 C          -1.8313   -1.8400    1.0045 C.ar    1  LIG1        0.0191
      2 C          -0.7432   -1.8721    0.1926 C.ar    1  LIG1        0.1418
      3 C          -0.3071   -0.5519   -0.1826 C.ar    1  LIG1        0.1084
      4 C          -1.0744    0.4440    0.3641 C.ar    1  LIG1        0.0505
      5 S          -2.3214   -0.2219    1.3420 S.2     1  LIG1       -0.0910
      6 H          -2.3574   -2.6849    1.4140 H       1  LIG1        0.0731
      7 O          -0.1492   -3.0091   -0.2274 O.3     1  LIG1       -0.5049
      8 H           0.6069   -2.8103   -0.7944 H       1  LIG1        0.2922
      9 N           1.6654   -0.3444   -1.8347 N.1     1  LIG1       -0.1907
     10 C           0.7896   -0.3758   -1.0922 C.1     1  LIG1        0.1040
     11 C          -0.8941    1.8828    0.2019 C.ar    1  LIG1        0.0705
     12 C           0.2946    2.5551    0.2287 C.ar    1  LIG1        0.1501
     13 C           0.1285    3.9652    0.0095 C.ar    1  LIG1        0.1090
     14 C          -1.1814    4.3316   -0.1607 C.ar    1  LIG1        0.0511
     15 S          -2.2230    2.9696   -0.0535 S.2     1  LIG1       -0.0820
     16 O           1.4712    1.9503    0.4562 O.3     1  LIG1       -0.5043
     17 H           2.2150    2.5374    0.2682 H       1  LIG1        0.2922
     18 N           2.2283    5.4597   -0.1321 N.1     1  LIG1       -0.1907
     19 C           1.2645    4.8392   -0.0680 C.1     1  LIG1        0.1040
     20 C          -1.6872    5.6806   -0.3913 C.ar    1  LIG1        0.0699
     21 C          -1.2839    6.8102    0.2637 C.ar    1  LIG1        0.1494
     22 C          -1.9656    7.9827   -0.2168 C.ar    1  LIG1        0.1007
     23 C          -2.8621    7.7047   -1.2077 C.ar    1  LIG1       -0.0027
     24 S          -2.8954    6.0414   -1.5820 S.2     1  LIG1       -0.0910
     25 H          -3.4931    8.4078   -1.7272 H       1  LIG1        0.0708
     26 O          -0.3886    6.7966    1.2630 O.3     1  LIG1       -0.5043
     27 H          -0.0838    7.6866    1.4828 H       1  LIG1        0.2922
     28 N          -1.4124   10.2786    0.8300 N.1     1  LIG1       -0.1907
     29 C          -1.6901    9.2797    0.3372 C.1     1  LIG1        0.1034
@<TRIPOS>BOND
     1     9    10    3
     2    25    23    1
     3    24    23   ar
     4    24    20   ar
     5    23    22   ar
     6    10     3    1
     7     8     7    1
     8    20    14    1
     9    20    21   ar
    10     7     2    1
    11    22    21   ar
    12    22    29    1
    13     3     2   ar
    14     3     4   ar
    15    14    15   ar
    16    14    13   ar
    17    18    19    3
    18    19    13    1
    19    15    11   ar
    20    13    12   ar
    21     2     1   ar
    22    11    12   ar
    23    11     4    1
    24    12    16    1
    25    21    26    1
    26    17    16    1
    27    29    28    3
    28     4     5   ar
    29     1     5   ar
    30     1     6    1
    31    26    27    1
