@<TRIPOS>MOLECULE
mol_data/opt/m06hf/geoms/mol2/5fd5fd-5fd5fd-.out
 38 41 0 0 0
SMALL
GASTEIGER

@<TRIPOS>ATOM
      1 C          -1.3004   -1.9857    1.2150 C.ar    1  LIG1        0.0191
      2 C          -0.5628   -1.9282    0.0761 C.ar    1  LIG1        0.1418
      3 C          -0.3071   -0.5727   -0.3368 C.ar    1  LIG1        0.1084
      4 C          -0.8523    0.3592    0.5085 C.ar    1  LIG1        0.0505
      5 S          -1.6696   -0.4104    1.8096 S.2     1  LIG1       -0.0910
      6 H          -1.6380   -2.8727    1.7228 H       1  LIG1        0.0731
      7 O          -0.1317   -3.0145   -0.5997 O.3     1  LIG1       -0.5049
      8 H           0.3677   -2.7532   -1.3840 H       1  LIG1        0.2922
      9 N           0.9583   -0.1870   -2.5537 N.1     1  LIG1       -0.1907
     10 C           0.4000   -0.2999   -1.5562 C.1     1  LIG1        0.1040
     11 C          -0.7616    1.8109    0.3915 C.ar    1  LIG1        0.0705
     12 C           0.3522    2.5236    0.0509 C.ar    1  LIG1        0.1501
     13 C           0.1006    3.9374   -0.0053 C.ar    1  LIG1        0.1090
     14 C          -1.1917    4.2659    0.3139 C.ar    1  LIG1        0.0511
     15 S          -2.1114    2.8603    0.6849 S.2     1  LIG1       -0.0820
     16 O           1.5451    1.9526   -0.1790 O.3     1  LIG1       -0.5043
     17 H           2.1525    2.5614   -0.6200 H       1  LIG1        0.2922
     18 N           2.0151    5.4802   -0.7886 N.1     1  LIG1       -0.1907
     19 C           1.1319    4.8431   -0.4243 C.1     1  LIG1        0.1040
     20 C          -1.7714    5.6023    0.3649 C.ar    1  LIG1        0.0705
     21 C          -1.1780    6.7197    0.8825 C.ar    1  LIG1        0.1501
     22 C          -2.0233    7.8775    0.7893 C.ar    1  LIG1        0.1090
     23 C          -3.2361    7.6113    0.2072 C.ar    1  LIG1        0.0511
     24 S          -3.3532    5.9587   -0.2501 S.2     1  LIG1       -0.0820
     25 O           0.0303    6.7027    1.4630 O.3     1  LIG1       -0.5043
     26 H           0.3536    7.5949    1.6458 H       1  LIG1        0.2922
     27 N          -1.1910   10.1000    1.8037 N.1     1  LIG1       -0.1907
     28 C          -1.6046    9.1384    1.3323 C.1     1  LIG1        0.1040
     29 C          -4.3118    8.5615   -0.0503 C.ar    1  LIG1        0.0699
     30 C          -4.1636    9.8233   -0.5545 C.ar    1  LIG1        0.1494
     31 C          -5.4260   10.5017   -0.6824 C.ar    1  LIG1        0.1007
     32 C          -6.4813    9.7360   -0.2808 C.ar    1  LIG1       -0.0027
     33 S          -5.9788    8.1997    0.2618 S.2     1  LIG1       -0.0910
     34 H          -7.5228   10.0150   -0.2808 H       1  LIG1        0.0708
     35 O          -2.9762   10.3300   -0.9174 O.3     1  LIG1       -0.5043
     36 H          -3.0340   11.2724   -1.1221 H       1  LIG1        0.2922
     37 N          -5.4823   12.9074   -1.6233 N.1     1  LIG1       -0.1907
     38 C          -5.5011   11.8405   -1.1995 C.1     1  LIG1        0.1034
@<TRIPOS>BOND
     1     9    10    3
     2    37    38    3
     3    10     3    1
     4     8     7    1
     5    38    31    1
     6    36    35    1
     7    35    30    1
     8    18    19    3
     9    31    30   ar
    10    31    32   ar
    11    17    16    1
    12     7     2    1
    13    30    29   ar
    14    19    13    1
    15     3     2   ar
    16     3     4   ar
    17    32    34    1
    18    32    33   ar
    19    24    23   ar
    20    24    20   ar
    21    16    12    1
    22    29    23    1
    23    29    33   ar
    24    13    12   ar
    25    13    14   ar
    26    12    11   ar
    27     2     1   ar
    28    23    22   ar
    29    14    20    1
    30    14    15   ar
    31    20    21   ar
    32    11     4    1
    33    11    15   ar
    34     4     5   ar
    35    22    21   ar
    36    22    28    1
    37    21    25    1
    38     1     6    1
    39     1     5   ar
    40    28    27    3
    41    25    26    1
