@<TRIPOS>MOLECULE
mol_data/opt/m06hf/geoms/mol2/5fd5fd5fd-5fd.out
 38 41 0 0 0
SMALL
GASTEIGER

@<TRIPOS>ATOM
      1 C          -1.8175   -2.0485    0.2618 C.ar    1  LIG1        0.0191
      2 C          -0.5186   -1.9516   -0.1222 C.ar    1  LIG1        0.1418
      3 C          -0.0759   -0.5834   -0.2012 C.ar    1  LIG1        0.1084
      4 C          -1.0529    0.3175    0.1366 C.ar    1  LIG1        0.0505
      5 S          -2.5075   -0.4978    0.5552 S.2     1  LIG1       -0.0910
      6 H          -2.3899   -2.9518    0.3839 H       1  LIG1        0.0731
      7 O           0.2612   -3.0147   -0.4103 O.3     1  LIG1       -0.5049
      8 H           1.1438   -2.7311   -0.6818 H       1  LIG1        0.2922
      9 N           2.3215   -0.1374   -1.0457 N.1     1  LIG1       -0.1907
     10 C           1.2495   -0.2730   -0.6564 C.1     1  LIG1        0.1040
     11 C          -0.9363    1.7704    0.1876 C.ar    1  LIG1        0.0705
     12 C           0.1186    2.4796    0.6882 C.ar    1  LIG1        0.1501
     13 C          -0.0968    3.8988    0.6216 C.ar    1  LIG1        0.1090
     14 C          -1.3090    4.2341    0.0744 C.ar    1  LIG1        0.0511
     15 S          -2.1870    2.8266   -0.3854 S.2     1  LIG1       -0.0820
     16 O           1.1989    1.8981    1.2312 O.3     1  LIG1       -0.5043
     17 H           1.8873    2.5451    1.4340 H       1  LIG1        0.2922
     18 N           1.6916    5.4511    1.6477 N.1     1  LIG1       -0.1907
     19 C           0.8691    4.8092    1.1686 C.1     1  LIG1        0.1040
     20 C          -1.8330    5.5769   -0.1396 C.ar    1  LIG1        0.0705
     21 C          -1.1327    6.6490   -0.6179 C.ar    1  LIG1        0.1501
     22 C          -1.9454    7.8296   -0.7153 C.ar    1  LIG1        0.1090
     23 C          -3.2398    7.6267   -0.3104 C.ar    1  LIG1        0.0511
     24 S          -3.4788    6.0052    0.2090 S.2     1  LIG1       -0.0820
     25 O           0.1509    6.5728   -0.9960 O.3     1  LIG1       -0.5043
     26 H           0.5094    7.4411   -1.2226 H       1  LIG1        0.2922
     27 N          -0.8991    9.9644   -1.7204 N.1     1  LIG1       -0.1907
     28 C          -1.4097    9.0451   -1.2595 C.1     1  LIG1        0.1040
     29 C          -4.3071    8.6198   -0.2660 C.ar    1  LIG1        0.0699
     30 C          -4.1850    9.9032    0.1889 C.ar    1  LIG1        0.1494
     31 C          -5.4253   10.6262    0.0960 C.ar    1  LIG1        0.1007
     32 C          -6.4405    9.8713   -0.4158 C.ar    1  LIG1       -0.0027
     33 S          -5.9240    8.2923   -0.7992 S.2     1  LIG1       -0.0910
     34 H          -7.4591   10.1816   -0.5844 H       1  LIG1        0.0708
     35 O          -3.0444   10.3938    0.6949 O.3     1  LIG1       -0.5043
     36 H          -3.0977   11.3468    0.8444 H       1  LIG1        0.2922
     37 N          -5.5162   13.0819    0.8933 N.1     1  LIG1       -0.1907
     38 C          -5.5205   11.9940    0.5262 C.1     1  LIG1        0.1034
@<TRIPOS>BOND
     1    27    28    3
     2    28    22    1
     3    26    25    1
     4     9    10    3
     5    25    21    1
     6    33    32   ar
     7    33    29   ar
     8    22    21   ar
     9    22    23   ar
    10     8     7    1
    11    10     3    1
    12    21    20   ar
    13    34    32    1
    14    32    31   ar
    15     7     2    1
    16    15    14   ar
    17    15    11   ar
    18    23    29    1
    19    23    24   ar
    20    29    30   ar
    21     3     2   ar
    22     3     4   ar
    23    20    14    1
    24    20    24   ar
    25     2     1   ar
    26    14    13   ar
    27    31    30   ar
    28    31    38    1
    29     4    11    1
    30     4     5   ar
    31    11    12   ar
    32    30    35    1
    33     1     6    1
    34     1     5   ar
    35    38    37    3
    36    13    12   ar
    37    13    19    1
    38    12    16    1
    39    35    36    1
    40    19    18    3
    41    16    17    1
