@<TRIPOS>MOLECULE
mol_data/opt/m06hf/geoms/mol2/5fd5fd-5fd.out
 29 31 0 0 0
SMALL
GASTEIGER

@<TRIPOS>ATOM
      1 C          -1.8025   -1.8400    1.0387 C.ar    1  LIG1        0.0191
      2 C          -0.7322   -1.8718    0.2035 C.ar    1  LIG1        0.1418
      3 C          -0.3062   -0.5515   -0.1829 C.ar    1  LIG1        0.1084
      4 C          -1.0628    0.4441    0.3788 C.ar    1  LIG1        0.0505
      5 S          -2.2873   -0.2221    1.3846 S.2     1  LIG1       -0.0910
      6 H          -2.3184   -2.6850    1.4607 H       1  LIG1        0.0731
      7 O          -0.1459   -3.0086   -0.2277 O.3     1  LIG1       -0.5049
      8 H           0.5978   -2.8096   -0.8109 H       1  LIG1        0.2922
      9 N           1.6300   -0.3435   -1.8775 N.1     1  LIG1       -0.1907
     10 C           0.7705   -0.3751   -1.1160 C.1     1  LIG1        0.1040
     11 C          -0.8881    1.8829    0.2105 C.ar    1  LIG1        0.0705
     12 C           0.3001    2.5568    0.2113 C.ar    1  LIG1        0.1501
     13 C           0.1275    3.9663   -0.0066 C.ar    1  LIG1        0.1090
     14 C          -1.1862    4.3307   -0.1497 C.ar    1  LIG1        0.0511
     15 S          -2.2235    2.9675   -0.0183 S.2     1  LIG1       -0.0820
     16 O           1.4819    1.9538    0.4148 O.3     1  LIG1       -0.5043
     17 H           2.2209    2.5410    0.2088 H       1  LIG1        0.2922
     18 N           2.2219    5.4631   -0.1955 N.1     1  LIG1       -0.1907
     19 C           1.2605    4.8415   -0.1098 C.1     1  LIG1        0.1040
     20 C          -1.6985    5.6787   -0.3718 C.ar    1  LIG1        0.0699
     21 C          -1.2830    6.8098    0.2727 C.ar    1  LIG1        0.1494
     22 C          -1.9765    7.9807   -0.1948 C.ar    1  LIG1        0.1007
     23 C          -2.8933    7.7000   -1.1660 C.ar    1  LIG1       -0.0027
     24 S          -2.9323    6.0360   -1.5370 S.2     1  LIG1       -0.0910
     25 H          -3.5362    8.4013   -1.6731 H       1  LIG1        0.0708
     26 O          -0.3667    6.7990    1.2530 O.3     1  LIG1       -0.5043
     27 H          -0.0580    7.6896    1.4645 H       1  LIG1        0.2922
     28 N          -1.4040   10.2789    0.8362 N.1     1  LIG1       -0.1907
     29 C          -1.6908    9.2789    0.3511 C.1     1  LIG1        0.1034
@<TRIPOS>BOND
     1     9    10    3
     2    25    23    1
     3    24    23   ar
     4    24    20   ar
     5    23    22   ar
     6    10     3    1
     7     8     7    1
     8    20    14    1
     9    20    21   ar
    10     7     2    1
    11    18    19    3
    12    22    21   ar
    13    22    29    1
    14     3     2   ar
    15     3     4   ar
    16    14    15   ar
    17    14    13   ar
    18    19    13    1
    19    15    11   ar
    20    13    12   ar
    21     2     1   ar
    22    17    16    1
    23    11    12   ar
    24    11     4    1
    25    12    16    1
    26    21    26    1
    27    29    28    3
    28     4     5   ar
    29     1     5   ar
    30     1     6    1
    31    26    27    1
