@<TRIPOS>MOLECULE
mol_data/opt/m06hf/geoms/mol2/5fd5fd5fd-5fd-.out
 38 41 0 0 0
SMALL
GASTEIGER

@<TRIPOS>ATOM
      1 C          -1.3122   -1.9734    1.2385 C.ar    1  LIG1        0.0191
      2 C          -0.5770   -1.9316    0.0974 C.ar    1  LIG1        0.1418
      3 C          -0.3201   -0.5818   -0.3334 C.ar    1  LIG1        0.1084
      4 C          -0.8621    0.3615    0.5009 C.ar    1  LIG1        0.0505
      5 S          -1.6777   -0.3903    1.8139 S.2     1  LIG1       -0.0910
      6 H          -1.6499   -2.8535    1.7582 H       1  LIG1        0.0731
      7 O          -0.1493   -3.0271   -0.5654 O.3     1  LIG1       -0.5049
      8 H           0.3494   -2.7763   -1.3537 H       1  LIG1        0.2922
      9 N           0.9386   -0.2347   -2.5601 N.1     1  LIG1       -0.1907
     10 C           0.3839   -0.3279   -1.5586 C.1     1  LIG1        0.1040
     11 C          -0.7685    1.8115    0.3682 C.ar    1  LIG1        0.0705
     12 C           0.3486    2.5199    0.0286 C.ar    1  LIG1        0.1501
     13 C           0.1005    3.9342   -0.0342 C.ar    1  LIG1        0.1090
     14 C          -1.1919    4.2677    0.2798 C.ar    1  LIG1        0.0511
     15 S          -2.1169    2.8659    0.6499 S.2     1  LIG1       -0.0820
     16 O           1.5389    1.9457   -0.2031 O.3     1  LIG1       -0.5043
     17 H           2.1786    2.5832   -0.5473 H       1  LIG1        0.2922
     18 N           2.0308    5.4590   -0.8132 N.1     1  LIG1       -0.1907
     19 C           1.1384    4.8325   -0.4524 C.1     1  LIG1        0.1040
     20 C          -1.7683    5.6056    0.3242 C.ar    1  LIG1        0.0705
     21 C          -1.1708    6.7250    0.8330 C.ar    1  LIG1        0.1501
     22 C          -2.0146    7.8836    0.7370 C.ar    1  LIG1        0.1090
     23 C          -3.2308    7.6160    0.1630 C.ar    1  LIG1        0.0511
     24 S          -3.3525    5.9611   -0.2849 S.2     1  LIG1       -0.0820
     25 O           0.0398    6.7094    1.4088 O.3     1  LIG1       -0.5043
     26 H           0.3648    7.6021    1.5859 H       1  LIG1        0.2922
     27 N          -1.1724   10.1107    1.7329 N.1     1  LIG1       -0.1907
     28 C          -1.5907    9.1470    1.2699 C.1     1  LIG1        0.1040
     29 C          -4.3067    8.5664   -0.0931 C.ar    1  LIG1        0.0699
     30 C          -4.1595    9.8248   -0.6061 C.ar    1  LIG1        0.1494
     31 C          -5.4213   10.5053   -0.7279 C.ar    1  LIG1        0.1007
     32 C          -6.4751    9.7446   -0.3132 C.ar    1  LIG1       -0.0027
     33 S          -5.9718    8.2104    0.2346 S.2     1  LIG1       -0.0910
     34 H          -7.5159   10.0260   -0.3063 H       1  LIG1        0.0708
     35 O          -2.9738   10.3265   -0.9811 O.3     1  LIG1       -0.5043
     36 H          -3.0313   11.2675   -1.1925 H       1  LIG1        0.2922
     37 N          -5.4796   12.9053   -1.6831 N.1     1  LIG1       -0.1907
     38 C          -5.4975   11.8412   -1.2525 C.1     1  LIG1        0.1034
@<TRIPOS>BOND
     1     9    10    3
     2    37    38    3
     3    10     3    1
     4     8     7    1
     5    38    31    1
     6    36    35    1
     7    35    30    1
     8    18    19    3
     9    31    30   ar
    10    31    32   ar
    11    30    29   ar
    12     7     2    1
    13    17    16    1
    14    19    13    1
    15     3     2   ar
    16     3     4   ar
    17    32    34    1
    18    32    33   ar
    19    24    23   ar
    20    24    20   ar
    21    16    12    1
    22    29    23    1
    23    29    33   ar
    24    13    12   ar
    25    13    14   ar
    26    12    11   ar
    27     2     1   ar
    28    23    22   ar
    29    14    20    1
    30    14    15   ar
    31    20    21   ar
    32    11     4    1
    33    11    15   ar
    34     4     5   ar
    35    22    21   ar
    36    22    28    1
    37    21    25    1
    38     1     6    1
    39     1     5   ar
    40    28    27    3
    41    25    26    1
