@<TRIPOS>MOLECULE
mol_data/opt/m06hf/geoms/mol2/5fd5fd-.out
 20 21 0 0 0
SMALL
GASTEIGER

@<TRIPOS>ATOM
      1 C          -2.0042   -1.7958    0.5214 C.ar    1  LIG1        0.0191
      2 C          -0.7210   -1.7985    0.0761 C.ar    1  LIG1        0.1418
      3 C          -0.2379   -0.4686   -0.1905 C.ar    1  LIG1        0.1084
      4 C          -1.1682    0.5041    0.0686 C.ar    1  LIG1        0.0504
      5 S          -2.6293   -0.1952    0.6420 S.2     1  LIG1       -0.0910
      6 H          -2.6009   -2.6537    0.7784 H       1  LIG1        0.0731
      7 O           0.0081   -2.9184   -0.1157 O.3     1  LIG1       -0.5049
      8 H           0.9008   -2.6990   -0.4110 H       1  LIG1        0.2922
      9 N           2.1346   -0.1902   -1.1694 N.1     1  LIG1       -0.1907
     10 C           1.0761   -0.2562   -0.7286 C.1     1  LIG1        0.1040
     11 C          -0.9934    1.9460   -0.0793 C.ar    1  LIG1        0.0699
     12 C           0.1068    2.6648    0.2928 C.ar    1  LIG1        0.1494
     13 C          -0.0335    4.0637   -0.0146 C.ar    1  LIG1        0.1007
     14 C          -1.2311    4.3602   -0.5972 C.ar    1  LIG1       -0.0027
     15 S          -2.1976    2.9675   -0.7937 S.2     1  LIG1       -0.0911
     16 H          -1.5746    5.3305   -0.9173 H       1  LIG1        0.0708
     17 O           1.1654    2.1168    0.9131 O.3     1  LIG1       -0.5043
     18 H           1.9340    2.7016    0.8902 H       1  LIG1        0.2922
     19 N           1.8924    5.6879    0.5585 N.1     1  LIG1       -0.1907
     20 C           1.0127    5.0011    0.2901 C.1     1  LIG1        0.1034
@<TRIPOS>BOND
     1     9    10    3
     2    16    14    1
     3    15    14   ar
     4    15    11   ar
     5    10     3    1
     6    14    13   ar
     7     8     7    1
     8     3     4   ar
     9     3     2   ar
    10     7     2    1
    11    11     4    1
    12    11    12   ar
    13    13    20    1
    14    13    12   ar
    15     4     5   ar
    16     2     1   ar
    17    20    19    3
    18    12    17    1
    19     1     5   ar
    20     1     6    1
    21    18    17    1
