@<TRIPOS>MOLECULE
mol_data/opt/m06hf/geoms/mol2/5fe.out
 12 12 0 0 0
SMALL
GASTEIGER

@<TRIPOS>ATOM
      1 C          -2.0962   -1.7358    0.0001 C.ar    1  LIG1        0.0184
      2 C          -0.7407   -1.6789   -0.0004 C.ar    1  LIG1        0.1391
      3 C          -0.2431   -0.3220   -0.0002 C.ar    1  LIG1        0.0730
      4 C          -1.2520    0.5962    0.0004 C.ar    1  LIG1       -0.0053
      5 S          -2.7882   -0.1565    0.0009 S.2     1  LIG1       -0.1001
      6 H          -2.7085   -2.6210    0.0002 H       1  LIG1        0.0730
      7 H          -1.1525    1.6691    0.0006 H       1  LIG1        0.0707
      8 O           0.0715   -2.7611   -0.0010 O.3     1  LIG1       -0.5050
      9 H           0.9915   -2.4650   -0.0013 H       1  LIG1        0.2922
     10 C           1.1671   -0.0566   -0.0008 C.1     1  LIG1       -0.0655
     11 C           2.3619    0.0847   -0.0012 C.1     1  LIG1       -0.1138
     12 H           3.4167    0.2374   -0.0015 H       1  LIG1        0.1232
@<TRIPOS>BOND
     1    12    11    1
     2     9     8    1
     3    11    10    3
     4     8     2    1
     5    10     3    1
     6     2     3   ar
     7     2     1   ar
     8     3     4   ar
     9     1     6    1
    10     1     5   ar
    11     4     7    1
    12     4     5   ar
