@<TRIPOS>MOLECULE
mol_data/opt/m06hf/geoms/mol2/5fe5fe5fe5fe-.out
 42 45 0 0 0
SMALL
GASTEIGER

@<TRIPOS>ATOM
      1 C          -1.7939   -2.0115    0.3821 C.ar    1  LIG1        0.0190
      2 C          -0.5193   -1.9236   -0.0716 C.ar    1  LIG1        0.1398
      3 C          -0.0541   -0.5607   -0.1775 C.ar    1  LIG1        0.0814
      4 C          -1.0027    0.3461    0.2154 C.ar    1  LIG1        0.0484
      5 S          -2.4505   -0.4493    0.7128 S.2     1  LIG1       -0.0910
      6 H          -2.3700   -2.9079    0.5323 H       1  LIG1        0.0731
      7 O           0.2465   -2.9858   -0.4107 O.3     1  LIG1       -0.5050
      8 H           1.0985   -2.6652   -0.7362 H       1  LIG1        0.2922
      9 C           1.2489   -0.2793   -0.7013 C.1     1  LIG1       -0.0648
     10 C           2.3514   -0.1404   -1.1621 C.1     1  LIG1       -0.1138
     11 H           3.3247    0.0145   -1.5663 H       1  LIG1        0.1232
     12 C          -0.8741    1.7989    0.2600 C.ar    1  LIG1        0.0704
     13 C           0.1722    2.5146    0.7628 C.ar    1  LIG1        0.1481
     14 C          -0.0312    3.9397    0.6854 C.ar    1  LIG1        0.0820
     15 C          -1.2364    4.2675    0.1217 C.ar    1  LIG1        0.0491
     16 S          -2.1172    2.8559   -0.3377 S.2     1  LIG1       -0.0820
     17 O           1.2632    1.9615    1.3224 O.3     1  LIG1       -0.5044
     18 H           1.8491    2.6648    1.6342 H       1  LIG1        0.2922
     19 C           0.9397    4.8364    1.2371 C.1     1  LIG1       -0.0648
     20 C           1.8013    5.5089    1.7392 C.1     1  LIG1       -0.1138
     21 H           2.5474    6.1315    2.1757 H       1  LIG1        0.1232
     22 C          -1.7662    5.6060   -0.1099 C.ar    1  LIG1        0.0704
     23 C          -1.1022    6.6703   -0.6470 C.ar    1  LIG1        0.1481
     24 C          -1.9270    7.8462   -0.7637 C.ar    1  LIG1        0.0820
     25 C          -3.2022    7.6394   -0.3065 C.ar    1  LIG1        0.0490
     26 S          -3.4053    6.0324    0.2838 S.2     1  LIG1       -0.0820
     27 O           0.1730    6.6252   -1.0707 O.3     1  LIG1       -0.5044
     28 H           0.4097    7.4814   -1.4529 H       1  LIG1        0.2922
     29 C          -1.4071    9.0323   -1.3759 C.1     1  LIG1       -0.0648
     30 C          -0.8905    9.9747   -1.9162 C.1     1  LIG1       -0.1138
     31 H          -0.4589   10.8250   -2.3919 H       1  LIG1        0.1232
     32 C          -4.2913    8.6103   -0.2676 C.ar    1  LIG1        0.0698
     33 C          -4.2224    9.8981    0.1779 C.ar    1  LIG1        0.1474
     34 C          -5.4861   10.5875    0.0820 C.ar    1  LIG1        0.0737
     35 C          -6.4704    9.7909   -0.4252 C.ar    1  LIG1       -0.0047
     36 S          -5.8979    8.2246   -0.8032 S.2     1  LIG1       -0.0911
     37 H          -7.4996   10.0621   -0.5947 H       1  LIG1        0.0707
     38 O          -3.1103   10.4622    0.6812 O.3     1  LIG1       -0.5044
     39 H          -3.3058   11.3691    0.9530 H       1  LIG1        0.2922
     40 C          -5.6085   11.9521    0.5076 C.1     1  LIG1       -0.0655
     41 C          -5.6345   13.0943    0.8848 C.1     1  LIG1       -0.1138
     42 H          -5.6834   14.1072    1.2136 H       1  LIG1        0.1232
@<TRIPOS>BOND
     1    31    30    1
     2    30    29    3
     3    11    10    1
     4    28    27    1
     5    29    24    1
     6    10     9    3
     7    27    23    1
     8    36    35   ar
     9    36    32   ar
    10    24    23   ar
    11    24    25   ar
    12     8     7    1
    13     9     3    1
    14    23    22   ar
    15    37    35    1
    16    35    34   ar
    17     7     2    1
    18    16    15   ar
    19    16    12   ar
    20    25    32    1
    21    25    26   ar
    22    32    33   ar
    23     3     2   ar
    24     3     4   ar
    25    22    15    1
    26    22    26   ar
    27     2     1   ar
    28    34    33   ar
    29    34    40    1
    30    15    14   ar
    31    33    38    1
    32     4    12    1
    33     4     5   ar
    34    12    13   ar
    35     1     6    1
    36     1     5   ar
    37    40    41    3
    38    38    39    1
    39    14    13   ar
    40    14    19    1
    41    13    17    1
    42    41    42    1
    43    19    20    3
    44    17    18    1
    45    20    21    1
