@<TRIPOS>MOLECULE
mol_data/opt/m06hf/geoms/mol2/5fe5fe-5fe-.out
 32 34 0 0 0
SMALL
GASTEIGER

@<TRIPOS>ATOM
      1 C          -1.8812   -1.9231   -0.3958 C.ar    1  LIG1        0.0190
      2 C          -0.6821   -1.8300    0.2304 C.ar    1  LIG1        0.1398
      3 C          -0.1999   -0.4718    0.3188 C.ar    1  LIG1        0.0814
      4 C          -1.0567    0.4249   -0.2632 C.ar    1  LIG1        0.0484
      5 S          -2.4376   -0.3747   -0.9175 S.2     1  LIG1       -0.0910
      6 H          -2.4526   -2.8174   -0.5745 H       1  LIG1        0.0731
      7 O          -0.0010   -2.8816    0.7397 O.3     1  LIG1       -0.5050
      8 H           0.8059   -2.5568    1.1615 H       1  LIG1        0.2922
      9 C           1.0204   -0.1806    1.0096 C.1     1  LIG1       -0.0648
     10 C           2.0481   -0.0320    1.6171 C.1     1  LIG1       -0.1138
     11 H           2.9557    0.1326    2.1502 H       1  LIG1        0.1232
     12 C          -0.8902    1.8715   -0.3643 C.ar    1  LIG1        0.0704
     13 C           0.2279    2.5450   -0.7597 C.ar    1  LIG1        0.1481
     14 C           0.0483    3.9753   -0.7739 C.ar    1  LIG1        0.0820
     15 C          -1.2110    4.3486   -0.3849 C.ar    1  LIG1        0.0490
     16 S          -2.1746    2.9767    0.0213 S.2     1  LIG1       -0.0820
     17 O           1.3686    1.9452   -1.1437 O.3     1  LIG1       -0.5044
     18 H           2.0079    2.6181   -1.4159 H       1  LIG1        0.2922
     19 C           1.1048    4.8292   -1.2283 C.1     1  LIG1       -0.0648
     20 C           2.0431    5.4633   -1.6346 C.1     1  LIG1       -0.1138
     21 H           2.8605    6.0496   -1.9868 H       1  LIG1        0.1232
     22 C          -1.7390    5.7048   -0.2729 C.ar    1  LIG1        0.0698
     23 C          -1.1352    6.7752    0.3207 C.ar    1  LIG1        0.1474
     24 C          -1.9491    7.9660    0.2789 C.ar    1  LIG1        0.0737
     25 C          -3.1466    7.7506   -0.3378 C.ar    1  LIG1       -0.0047
     26 S          -3.3046    6.1380   -0.8859 S.2     1  LIG1       -0.0911
     27 H          -3.9318    8.4716   -0.4964 H       1  LIG1        0.0707
     28 O           0.0720    6.7257    0.9115 O.3     1  LIG1       -0.5044
     29 H           0.2947    7.5993    1.2607 H       1  LIG1        0.2922
     30 C          -1.4832    9.1915    0.8612 C.1     1  LIG1       -0.0655
     31 C          -1.0271   10.1800    1.3725 C.1     1  LIG1       -0.1138
     32 H          -0.6476   11.0694    1.8204 H       1  LIG1        0.1232
@<TRIPOS>BOND
     1    21    20    1
     2    20    19    3
     3    18    17    1
     4    19    14    1
     5    17    13    1
     6     5     1   ar
     7     5     4   ar
     8    26    25   ar
     9    26    22   ar
    10    14    13   ar
    11    14    15   ar
    12    13    12   ar
    13     6     1    1
    14    27    25    1
    15     1     2   ar
    16    15    22    1
    17    15    16   ar
    18    12     4    1
    19    12    16   ar
    20    25    24   ar
    21    22    23   ar
    22     4     3   ar
    23     2     3   ar
    24     2     7    1
    25    24    23   ar
    26    24    30    1
    27     3     9    1
    28    23    28    1
    29     7     8    1
    30    30    31    3
    31    28    29    1
    32     9    10    3
    33    31    32    1
    34    10    11    1
