@<TRIPOS>MOLECULE
mol_data/opt/m06hf/geoms/mol2/5fe5fe.out
 22 23 0 0 0
SMALL
GASTEIGER

@<TRIPOS>ATOM
      1 C          -2.0213   -1.7481    0.6347 C.ar    1  LIG1        0.0190
      2 C          -0.7191   -1.7858    0.2576 C.ar    1  LIG1        0.1398
      3 C          -0.1954   -0.4827   -0.0774 C.ar    1  LIG1        0.0814
      4 C          -1.1292    0.5086    0.0694 C.ar    1  LIG1        0.0484
      5 S          -2.6340   -0.1348    0.6127 S.2     1  LIG1       -0.0910
      6 H          -2.6404   -2.5819    0.9165 H       1  LIG1        0.0731
      7 O           0.0226   -2.9138    0.1769 O.3     1  LIG1       -0.5050
      8 H           0.9151   -2.6808   -0.1118 H       1  LIG1        0.2922
      9 C           1.1463   -0.3403   -0.5585 C.1     1  LIG1       -0.0648
     10 C           2.2784   -0.3178   -0.9648 C.1     1  LIG1       -0.1138
     11 H           3.2781   -0.2672   -1.3291 H       1  LIG1        0.1232
     12 C          -0.9427    1.9381   -0.1627 C.ar    1  LIG1        0.0698
     13 C           0.0994    2.7083    0.2625 C.ar    1  LIG1        0.1474
     14 C          -0.0242    4.0875   -0.1451 C.ar    1  LIG1        0.0737
     15 C          -1.1653    4.3154   -0.8568 C.ar    1  LIG1       -0.0047
     16 S          -2.0879    2.8883   -1.0603 S.2     1  LIG1       -0.0911
     17 H          -1.4935    5.2552   -1.2693 H       1  LIG1        0.0707
     18 O           1.1213    2.2485    1.0077 O.3     1  LIG1       -0.5044
     19 H           1.7379    2.9715    1.1853 H       1  LIG1        0.2922
     20 C           0.9796    5.0482    0.2141 C.1     1  LIG1       -0.0655
     21 C           1.8624    5.7918    0.5528 C.1     1  LIG1       -0.1138
     22 H           2.6320    6.4696    0.8433 H       1  LIG1        0.1232
@<TRIPOS>BOND
     1    11    10    1
     2    17    15    1
     3    16    15   ar
     4    16    12   ar
     5    10     9    3
     6    15    14   ar
     7     9     3    1
     8    12     4    1
     9    12    13   ar
    10    14    20    1
    11    14    13   ar
    12     8     7    1
    13     3     4   ar
    14     3     2   ar
    15     4     5   ar
    16     7     2    1
    17    20    21    3
    18     2     1   ar
    19    13    18    1
    20    21    22    1
    21     5     1   ar
    22     1     6    1
    23    18    19    1
