@<TRIPOS>MOLECULE
mol_data/opt/m06hf/geoms/mol2/5fe5fe5fe-5fe-.out
 42 45 0 0 0
SMALL
GASTEIGER

@<TRIPOS>ATOM
      1 C          -1.1026   -1.8828    1.6204 C.ar    1  LIG1        0.0190
      2 C          -0.4909   -1.8808    0.4105 C.ar    1  LIG1        0.1398
      3 C          -0.2469   -0.5494   -0.0922 C.ar    1  LIG1        0.0814
      4 C          -0.6797    0.4221    0.7712 C.ar    1  LIG1        0.0484
      5 S          -1.3746   -0.2762    2.1889 S.2     1  LIG1       -0.0910
      6 H          -1.4013   -2.7425    2.1945 H       1  LIG1        0.0731
      7 O          -0.1540   -2.9957   -0.2778 O.3     1  LIG1       -0.5050
      8 H           0.2552   -2.7355   -1.1138 H       1  LIG1        0.2922
      9 C           0.3364   -0.3574   -1.3859 C.1     1  LIG1       -0.0648
     10 C           0.8202   -0.2908   -2.4854 C.1     1  LIG1       -0.1138
     11 H           1.2484   -0.1987   -3.4563 H       1  LIG1        0.1232
     12 C          -0.5951    1.8683    0.5910 C.ar    1  LIG1        0.0704
     13 C           0.4918    2.5827    0.1834 C.ar    1  LIG1        0.1481
     14 C           0.2309    3.9968    0.0829 C.ar    1  LIG1        0.0820
     15 C          -1.0512    4.3199    0.4406 C.ar    1  LIG1        0.0491
     16 S          -1.9485    2.9164    0.8926 S.2     1  LIG1       -0.0820
     17 O           1.6903    2.0378   -0.0923 O.3     1  LIG1       -0.5044
     18 H           2.2986    2.7340   -0.3755 H       1  LIG1        0.2922
     19 C           1.2489    4.8844   -0.3930 C.1     1  LIG1       -0.0648
     20 C           2.1590    5.5504   -0.8117 C.1     1  LIG1       -0.1138
     21 H           2.9460    6.1674   -1.1792 H       1  LIG1        0.1232
     22 C          -1.6535    5.6486    0.4610 C.ar    1  LIG1        0.0704
     23 C          -1.1171    6.7858    0.9906 C.ar    1  LIG1        0.1481
     24 C          -1.9854    7.9291    0.8623 C.ar    1  LIG1        0.0820
     25 C          -3.1636    7.6239    0.2325 C.ar    1  LIG1        0.0490
     26 S          -3.2200    5.9610   -0.2218 S.2     1  LIG1       -0.0820
     27 O           0.0739    6.8364    1.6118 O.3     1  LIG1       -0.5044
     28 H           0.2320    7.7381    1.9234 H       1  LIG1        0.2922
     29 C          -1.6087    9.1905    1.4256 C.1     1  LIG1       -0.0648
     30 C          -1.2213   10.2071    1.9386 C.1     1  LIG1       -0.1138
     31 H          -0.9051   11.1213    2.3853 H       1  LIG1        0.1232
     32 C          -4.2588    8.5362   -0.0792 C.ar    1  LIG1        0.0698
     33 C          -4.1555    9.7762   -0.6393 C.ar    1  LIG1        0.1474
     34 C          -5.4383   10.4097   -0.8274 C.ar    1  LIG1        0.0737
     35 C          -6.4693    9.6208   -0.4093 C.ar    1  LIG1       -0.0047
     36 S          -5.9205    8.1293    0.2230 S.2     1  LIG1       -0.0911
     37 H          -7.5204    9.8566   -0.4433 H       1  LIG1        0.0707
     38 O          -2.9921   10.3412   -1.0071 O.3     1  LIG1       -0.5044
     39 H          -3.1657   11.2098   -1.3945 H       1  LIG1        0.2922
     40 C          -5.5264   11.7176   -1.4111 C.1     1  LIG1       -0.0655
     41 C          -5.5185   12.8132   -1.9087 C.1     1  LIG1       -0.1138
     42 H          -5.5378   13.7843   -2.3485 H       1  LIG1        0.1232
@<TRIPOS>BOND
     1    11    10    1
     2    10     9    3
     3    42    41    1
     4    41    40    3
     5    40    34    1
     6    39    38    1
     7     9     3    1
     8    21    20    1
     9     8     7    1
    10    38    33    1
    11    34    33   ar
    12    34    35   ar
    13    20    19    3
    14    33    32   ar
    15    37    35    1
    16    35    36   ar
    17    19    14    1
    18    18    17    1
    19     7     2    1
    20    26    25   ar
    21    26    22   ar
    22    17    13    1
    23     3     2   ar
    24     3     4   ar
    25    32    36   ar
    26    32    25    1
    27    14    13   ar
    28    14    15   ar
    29    13    12   ar
    30    25    24   ar
    31     2     1   ar
    32    15    22    1
    33    15    16   ar
    34    22    23   ar
    35    12     4    1
    36    12    16   ar
    37     4     5   ar
    38    24    23   ar
    39    24    29    1
    40    23    27    1
    41    29    30    3
    42    27    28    1
    43     1     5   ar
    44     1     6    1
    45    30    31    1
