@<TRIPOS>MOLECULE
mol_data/opt/m06hf/geoms/mol2/5fe5fe-.out
 22 23 0 0 0
SMALL
GASTEIGER

@<TRIPOS>ATOM
      1 C          -2.0164   -1.7467    0.6494 C.ar    1  LIG1        0.0190
      2 C          -0.7166   -1.7852    0.2638 C.ar    1  LIG1        0.1398
      3 C          -0.1955   -0.4830   -0.0785 C.ar    1  LIG1        0.0814
      4 C          -1.1285    0.5085    0.0714 C.ar    1  LIG1        0.0484
      5 S          -2.6296   -0.1335    0.6264 S.2     1  LIG1       -0.0910
      6 H          -2.6333   -2.5797    0.9377 H       1  LIG1        0.0731
      7 O           0.0248   -2.9133    0.1818 O.3     1  LIG1       -0.5050
      8 H           0.9154   -2.6809   -0.1135 H       1  LIG1        0.2922
      9 C           1.1431   -0.3418   -0.5688 C.1     1  LIG1       -0.0648
     10 C           2.2725   -0.3203   -0.9825 C.1     1  LIG1       -0.1138
     11 H           3.2698   -0.2706   -1.3535 H       1  LIG1        0.1232
     12 C          -0.9439    1.9373   -0.1663 C.ar    1  LIG1        0.0698
     13 C           0.1008    2.7091    0.2497 C.ar    1  LIG1        0.1474
     14 C          -0.0258    4.0870   -0.1612 C.ar    1  LIG1        0.0737
     15 C          -1.1716    4.3125   -0.8662 C.ar    1  LIG1       -0.0047
     16 S          -2.0952    2.8845   -1.0593 S.2     1  LIG1       -0.0911
     17 H          -1.5027    5.2509   -1.2794 H       1  LIG1        0.0707
     18 O           1.1277    2.2517    0.9896 O.3     1  LIG1       -0.5044
     19 H           1.7452    2.9754    1.1611 H       1  LIG1        0.2922
     20 C           0.9801    5.0491    0.1885 C.1     1  LIG1       -0.0655
     21 C           1.8649    5.7938    0.5191 C.1     1  LIG1       -0.1138
     22 H           2.6362    6.4727    0.8026 H       1  LIG1        0.1232
@<TRIPOS>BOND
     1    11    10    1
     2    17    15    1
     3    16    15   ar
     4    16    12   ar
     5    10     9    3
     6    15    14   ar
     7     9     3    1
     8    12     4    1
     9    12    13   ar
    10    14    20    1
    11    14    13   ar
    12     8     7    1
    13     3     4   ar
    14     3     2   ar
    15     4     5   ar
    16     7     2    1
    17    20    21    3
    18    13    18    1
    19     2     1   ar
    20    21    22    1
    21     5     1   ar
    22     1     6    1
    23    18    19    1
