@<TRIPOS>MOLECULE
mol_data/opt/m06hf/geoms/mol2/5fe5fe-5fe.out
 32 34 0 0 0
SMALL
GASTEIGER

@<TRIPOS>ATOM
      1 C          -1.8374   -1.7514    1.2466 C.ar    1  LIG1        0.0190
      2 C          -0.7363   -1.8370    0.4598 C.ar    1  LIG1        0.1398
      3 C          -0.2576   -0.5466    0.0231 C.ar    1  LIG1        0.0814
      4 C          -1.0174    0.4841    0.5096 C.ar    1  LIG1        0.0484
      5 S          -2.3041   -0.1078    1.4959 S.2     1  LIG1       -0.0910
      6 H          -2.3879   -2.5664    1.6833 H       1  LIG1        0.0731
      7 O          -0.1441   -2.9973    0.0959 O.3     1  LIG1       -0.5050
      8 H           0.6103   -2.7977   -0.4748 H       1  LIG1        0.2922
      9 C           0.8588   -0.4525   -0.8693 C.1     1  LIG1       -0.0648
     10 C           1.7923   -0.4725   -1.6281 C.1     1  LIG1       -0.1138
     11 H           2.6178   -0.4574   -2.3016 H       1  LIG1        0.1232
     12 C          -0.8133    1.9125    0.2895 C.ar    1  LIG1        0.0704
     13 C           0.3639    2.5947    0.3781 C.ar    1  LIG1        0.1481
     14 C           0.2240    3.9995    0.0875 C.ar    1  LIG1        0.0820
     15 C          -1.0704    4.3491   -0.1944 C.ar    1  LIG1        0.0490
     16 S          -2.1199    2.9845   -0.1175 S.2     1  LIG1       -0.0820
     17 O           1.5375    2.0273    0.7094 O.3     1  LIG1       -0.5044
     18 H           2.2260    2.7062    0.7266 H       1  LIG1        0.2922
     19 C           1.3755    4.8508    0.0708 C.1     1  LIG1       -0.0648
     20 C           2.3969    5.4860    0.0692 C.1     1  LIG1       -0.1138
     21 H           3.2858    6.0733    0.0604 H       1  LIG1        0.1232
     22 C          -1.5700    5.6788   -0.5310 C.ar    1  LIG1        0.0698
     23 C          -1.2811    6.8491    0.1077 C.ar    1  LIG1        0.1474
     24 C          -1.9362    7.9862   -0.4921 C.ar    1  LIG1        0.0737
     25 C          -2.7057    7.6320   -1.5615 C.ar    1  LIG1       -0.0047
     26 S          -2.6474    5.9506   -1.8656 S.2     1  LIG1       -0.0911
     27 H          -3.2983    8.2888   -2.1768 H       1  LIG1        0.0707
     28 O          -0.4963    6.9365    1.1963 O.3     1  LIG1       -0.5044
     29 H          -0.4306    7.8608    1.4716 H       1  LIG1        0.2922
     30 C          -1.7576    9.3033    0.0475 C.1     1  LIG1       -0.0655
     31 C          -1.5630   10.3771    0.5534 C.1     1  LIG1       -0.1138
     32 H          -1.4066   11.3399    0.9830 H       1  LIG1        0.1232
@<TRIPOS>BOND
     1    11    10    1
     2    27    25    1
     3    26    25   ar
     4    26    22   ar
     5    10     9    3
     6    25    24   ar
     7     9     3    1
     8    22    15    1
     9    22    23   ar
    10    24    30    1
    11    24    23   ar
    12     8     7    1
    13    15    16   ar
    14    15    14   ar
    15    16    12   ar
    16     3     2   ar
    17     3     4   ar
    18    30    31    3
    19    21    20    1
    20    20    19    3
    21    19    14    1
    22    14    13   ar
    23     7     2    1
    24    23    28    1
    25    12    13   ar
    26    12     4    1
    27    13    17    1
    28     2     1   ar
    29     4     5   ar
    30    31    32    1
    31    17    18    1
    32    28    29    1
    33     1     5   ar
    34     1     6    1
