@<TRIPOS>MOLECULE
mol_data/opt/m06hf/geoms/mol2/5fe5fe-5fe5fe-.out
 42 45 0 0 0
SMALL
GASTEIGER

@<TRIPOS>ATOM
      1 C          -1.0809   -1.8978    1.5717 C.ar    1  LIG1        0.0190
      2 C          -0.4627   -1.8802    0.3653 C.ar    1  LIG1        0.1398
      3 C          -0.2216   -0.5424   -0.1218 C.ar    1  LIG1        0.0814
      4 C          -0.6631    0.4179    0.7495 C.ar    1  LIG1        0.0484
      5 S          -1.3627   -0.2985    2.1559 S.2     1  LIG1       -0.0910
      6 H          -1.3790   -2.7648    2.1350 H       1  LIG1        0.0731
      7 O          -0.1174   -2.9862   -0.3331 O.3     1  LIG1       -0.5050
      8 H           0.2950   -2.7154   -1.1642 H       1  LIG1        0.2922
      9 C           0.3678   -0.3340   -1.4102 C.1     1  LIG1       -0.0648
     10 C           0.8571   -0.2534   -2.5064 C.1     1  LIG1       -0.1138
     11 H           1.2899   -0.1488   -3.4740 H       1  LIG1        0.1232
     12 C          -0.5838    1.8663    0.5853 C.ar    1  LIG1        0.0704
     13 C           0.5023    2.5896    0.1912 C.ar    1  LIG1        0.1481
     14 C           0.2358    4.0036    0.1044 C.ar    1  LIG1        0.0820
     15 C          -1.0497    4.3173    0.4583 C.ar    1  LIG1        0.0491
     16 S          -1.9433    2.9053    0.8905 S.2     1  LIG1       -0.0820
     17 O           1.7046    2.0528   -0.0837 O.3     1  LIG1       -0.5044
     18 H           2.3114    2.7546   -0.3560 H       1  LIG1        0.2922
     19 C           1.2525    4.9006   -0.3565 C.1     1  LIG1       -0.0648
     20 C           2.1619    5.5748   -0.7631 C.1     1  LIG1       -0.1138
     21 H           2.9482    6.1991   -1.1197 H       1  LIG1        0.1232
     22 C          -1.6579    5.6431    0.4896 C.ar    1  LIG1        0.0704
     23 C          -1.1294    6.7769    1.0343 C.ar    1  LIG1        0.1481
     24 C          -2.0020    7.9178    0.9136 C.ar    1  LIG1        0.0820
     25 C          -3.1754    7.6142    0.2742 C.ar    1  LIG1        0.0490
     26 S          -3.2220    5.9561   -0.1983 S.2     1  LIG1       -0.0820
     27 O           0.0580    6.8260    1.6625 O.3     1  LIG1       -0.5044
     28 H           0.2102    7.7248    1.9852 H       1  LIG1        0.2922
     29 C          -1.6339    9.1745    1.4927 C.1     1  LIG1       -0.0648
     30 C          -1.2538   10.1871    2.0190 C.1     1  LIG1       -0.1138
     31 H          -0.9440   11.0977    2.4774 H       1  LIG1        0.1232
     32 C          -4.2731    8.5249   -0.0334 C.ar    1  LIG1        0.0698
     33 C          -4.1725    9.7716   -0.5790 C.ar    1  LIG1        0.1474
     34 C          -5.4571   10.4013   -0.7672 C.ar    1  LIG1        0.0737
     35 C          -6.4867    9.6029   -0.3638 C.ar    1  LIG1       -0.0047
     36 S          -5.9346    8.1070    0.2547 S.2     1  LIG1       -0.0911
     37 H          -7.5387    9.8343   -0.4011 H       1  LIG1        0.0707
     38 O          -3.0096   10.3461   -0.9339 O.3     1  LIG1       -0.5044
     39 H          -3.1852   11.2179   -1.3129 H       1  LIG1        0.2922
     40 C          -5.5481   11.7152   -1.3368 C.1     1  LIG1       -0.0655
     41 C          -5.5428   12.8163   -1.8220 C.1     1  LIG1       -0.1138
     42 H          -5.5644   13.7922   -2.2511 H       1  LIG1        0.1232
@<TRIPOS>BOND
     1    11    10    1
     2    10     9    3
     3    42    41    1
     4    41    40    3
     5     9     3    1
     6    40    34    1
     7    39    38    1
     8     8     7    1
     9    21    20    1
    10    38    33    1
    11    34    33   ar
    12    34    35   ar
    13    20    19    3
    14    33    32   ar
    15    37    35    1
    16    35    36   ar
    17    19    14    1
    18    18    17    1
    19     7     2    1
    20    26    25   ar
    21    26    22   ar
    22     3     2   ar
    23     3     4   ar
    24    17    13    1
    25    32    36   ar
    26    32    25    1
    27    14    13   ar
    28    14    15   ar
    29    13    12   ar
    30    25    24   ar
    31     2     1   ar
    32    15    22    1
    33    15    16   ar
    34    22    23   ar
    35    12     4    1
    36    12    16   ar
    37     4     5   ar
    38    24    23   ar
    39    24    29    1
    40    23    27    1
    41    29    30    3
    42     1     6    1
    43     1     5   ar
    44    27    28    1
    45    30    31    1
