@<TRIPOS>MOLECULE
mol_data/opt/m06hf/geoms/mol2/5fe5fe-5fe5fe.out
 42 45 0 0 0
SMALL
GASTEIGER

@<TRIPOS>ATOM
      1 C          -1.8387   -2.0183    0.2071 C.ar    1  LIG1        0.0190
      2 C          -0.5466   -1.9250   -0.1927 C.ar    1  LIG1        0.1398
      3 C          -0.0720   -0.5621   -0.2437 C.ar    1  LIG1        0.0814
      4 C          -1.0321    0.3388    0.1346 C.ar    1  LIG1        0.0484
      5 S          -2.5019   -0.4621    0.5523 S.2     1  LIG1       -0.0910
      6 H          -2.4239   -2.9155    0.3102 H       1  LIG1        0.0731
      7 O           0.2281   -2.9817   -0.5288 O.3     1  LIG1       -0.5050
      8 H           1.0938   -2.6570   -0.8111 H       1  LIG1        0.2922
      9 C           1.2521   -0.2736   -0.7071 C.1     1  LIG1       -0.0648
     10 C           2.3728   -0.1282   -1.1194 C.1     1  LIG1       -0.1138
     11 H           3.3622    0.0324   -1.4800 H       1  LIG1        0.1232
     12 C          -0.8996    1.7893    0.2227 C.ar    1  LIG1        0.0704
     13 C           0.1284    2.4863    0.7859 C.ar    1  LIG1        0.1481
     14 C          -0.0661    3.9138    0.7381 C.ar    1  LIG1        0.0820
     15 C          -1.2463    4.2624    0.1352 C.ar    1  LIG1        0.0491
     16 S          -2.1134    2.8679   -0.3964 S.2     1  LIG1       -0.0820
     17 O           1.1936    1.9132    1.3742 O.3     1  LIG1       -0.5044
     18 H           1.7693    2.6050    1.7278 H       1  LIG1        0.2922
     19 C           0.8853    4.7908    1.3520 C.1     1  LIG1       -0.0648
     20 C           1.7286    5.4456    1.9060 C.1     1  LIG1       -0.1138
     21 H           2.4590    6.0528    2.3885 H       1  LIG1        0.1232
     22 C          -1.7609    5.6092   -0.0821 C.ar    1  LIG1        0.0704
     23 C          -1.0715    6.6838   -0.5637 C.ar    1  LIG1        0.1481
     24 C          -1.8863    7.8666   -0.6825 C.ar    1  LIG1        0.0820
     25 C          -3.1797    7.6543   -0.2827 C.ar    1  LIG1        0.0490
     26 S          -3.4128    6.0334    0.2563 S.2     1  LIG1       -0.0820
     27 O           0.2195    6.6435   -0.9367 O.3     1  LIG1       -0.5044
     28 H           0.4749    7.5082   -1.2864 H       1  LIG1        0.2922
     29 C          -1.3373    9.0656   -1.2418 C.1     1  LIG1       -0.0648
     30 C          -0.7956   10.0193   -1.7357 C.1     1  LIG1       -0.1138
     31 H          -0.3417   10.8795   -2.1711 H       1  LIG1        0.1232
     32 C          -4.2656    8.6293   -0.2621 C.ar    1  LIG1        0.0698
     33 C          -4.2097    9.9046    0.2196 C.ar    1  LIG1        0.1474
     34 C          -5.4658   10.6026    0.0911 C.ar    1  LIG1        0.0737
     35 C          -6.4319    9.8245   -0.4762 C.ar    1  LIG1       -0.0047
     36 S          -5.8508    8.2658   -0.8719 S.2     1  LIG1       -0.0911
     37 H          -7.4523   10.1052   -0.6797 H       1  LIG1        0.0707
     38 O          -3.1166   10.4498    0.7820 O.3     1  LIG1       -0.5044
     39 H          -3.3193   11.3501    1.0695 H       1  LIG1        0.2922
     40 C          -5.5998   11.9562    0.5472 C.1     1  LIG1       -0.0655
     41 C          -5.6365   13.0883    0.9531 C.1     1  LIG1       -0.1138
     42 H          -5.6947   14.0924    1.3063 H       1  LIG1        0.1232
@<TRIPOS>BOND
     1    31    30    1
     2    30    29    3
     3    11    10    1
     4    28    27    1
     5    29    24    1
     6    10     9    3
     7    27    23    1
     8    36    35   ar
     9    36    32   ar
    10     8     7    1
    11     9     3    1
    12    24    23   ar
    13    24    25   ar
    14    37    35    1
    15    23    22   ar
    16     7     2    1
    17    35    34   ar
    18    16    15   ar
    19    16    12   ar
    20    25    32    1
    21    25    26   ar
    22    32    33   ar
    23     3     2   ar
    24     3     4   ar
    25     2     1   ar
    26    22    15    1
    27    22    26   ar
    28    34    33   ar
    29    34    40    1
    30     4    12    1
    31     4     5   ar
    32    15    14   ar
    33     1     6    1
    34     1     5   ar
    35    33    38    1
    36    12    13   ar
    37    40    41    3
    38    14    13   ar
    39    14    19    1
    40    38    39    1
    41    13    17    1
    42    41    42    1
    43    19    20    3
    44    17    18    1
    45    20    21    1
