@<TRIPOS>MOLECULE
mol_data/opt/m06hf/geoms/mol2/5fe5fe5fe-5fe.out
 42 45 0 0 0
SMALL
GASTEIGER

@<TRIPOS>ATOM
      1 C          -1.3672   -1.6713    1.9902 C.ar    1  LIG1        0.0190
      2 C          -0.6921   -1.8146    0.8230 C.ar    1  LIG1        0.1398
      3 C          -0.3633   -0.5505    0.2072 C.ar    1  LIG1        0.0814
      4 C          -0.7985    0.5182    0.9452 C.ar    1  LIG1        0.0484
      5 S          -1.5966   -0.0068    2.3823 S.2     1  LIG1       -0.0910
      6 H          -1.7340   -2.4569    2.6282 H       1  LIG1        0.0731
      7 O          -0.3671   -3.0049    0.2685 O.3     1  LIG1       -0.5050
      8 H           0.0940   -2.8464   -0.5663 H       1  LIG1        0.2922
      9 C           0.2972   -0.5116   -1.0633 C.1     1  LIG1       -0.0648
     10 C           0.8401   -0.5753   -2.1353 C.1     1  LIG1       -0.1138
     11 H           1.3224   -0.5991   -3.0852 H       1  LIG1        0.1232
     12 C          -0.6327    1.9346    0.6337 C.ar    1  LIG1        0.0704
     13 C           0.5166    2.5598    0.2497 C.ar    1  LIG1        0.1481
     14 C           0.3363    3.9691    0.0065 C.ar    1  LIG1        0.0820
     15 C          -0.9510    4.3804    0.2330 C.ar    1  LIG1        0.0491
     16 S          -1.9507    3.0637    0.7299 S.2     1  LIG1       -0.0820
     17 O           1.7027    1.9394    0.1147 O.3     1  LIG1       -0.5044
     18 H           2.3684    2.5867   -0.1547 H       1  LIG1        0.2922
     19 C           1.4292    4.7680   -0.4602 C.1     1  LIG1       -0.0648
     20 C           2.3971    5.3606   -0.8590 C.1     1  LIG1       -0.1138
     21 H           3.2367    5.9124   -1.2135 H       1  LIG1        0.1232
     22 C          -1.4817    5.7323    0.0933 C.ar    1  LIG1        0.0704
     23 C          -0.9232    6.8852    0.5619 C.ar    1  LIG1        0.1481
     24 C          -1.6945    8.0579    0.2335 C.ar    1  LIG1        0.0820
     25 C          -2.8359    7.7549   -0.4616 C.ar    1  LIG1        0.0490
     26 S          -2.9778    6.0578   -0.7283 S.2     1  LIG1       -0.0820
     27 O           0.2209    6.9331    1.2658 O.3     1  LIG1       -0.5044
     28 H           0.4126    7.8519    1.4999 H       1  LIG1        0.2922
     29 C          -1.2181    9.3586    0.5971 C.1     1  LIG1       -0.0648
     30 C          -0.7352   10.4078    0.9337 C.1     1  LIG1       -0.1138
     31 H          -0.3317   11.3522    1.2188 H       1  LIG1        0.1232
     32 C          -3.8529    8.6831   -0.9454 C.ar    1  LIG1        0.0698
     33 C          -4.4320    9.7056   -0.2516 C.ar    1  LIG1        0.1474
     34 C          -5.4215   10.4131   -1.0278 C.ar    1  LIG1        0.0737
     35 C          -5.5644    9.8920   -2.2797 C.ar    1  LIG1       -0.0047
     36 S          -4.5145    8.5690   -2.5488 S.2     1  LIG1       -0.0911
     37 H          -6.2356   10.2346   -3.0500 H       1  LIG1        0.0707
     38 O          -4.1431   10.0068    1.0268 O.3     1  LIG1       -0.5044
     39 H          -4.6958   10.7460    1.3139 H       1  LIG1        0.2922
     40 C          -6.1401   11.5196   -0.4642 C.1     1  LIG1       -0.0655
     41 C          -6.7024   12.4366    0.0736 C.1     1  LIG1       -0.1138
     42 H          -7.2147   13.2540    0.5268 H       1  LIG1        0.1232
@<TRIPOS>BOND
     1    11    10    1
     2    37    35    1
     3    36    35   ar
     4    36    32   ar
     5    35    34   ar
     6    10     9    3
     7    21    20    1
     8     9     3    1
     9    34    40    1
    10    34    33   ar
    11    32    25    1
    12    32    33   ar
    13    20    19    3
    14    26    25   ar
    15    26    22   ar
    16     8     7    1
    17    40    41    3
    18    25    24   ar
    19    19    14    1
    20    33    38    1
    21    18    17    1
    22    14    15   ar
    23    14    13   ar
    24    41    42    1
    25    22    15    1
    26    22    23   ar
    27    17    13    1
    28     3     2   ar
    29     3     4   ar
    30    15    16   ar
    31    24    23   ar
    32    24    29    1
    33    13    12   ar
    34     7     2    1
    35    23    27    1
    36    29    30    3
    37    12    16   ar
    38    12     4    1
    39     2     1   ar
    40    30    31    1
    41     4     5   ar
    42    38    39    1
    43    27    28    1
    44     1     5   ar
    45     1     6    1
