@<TRIPOS>MOLECULE
mol_data/opt/m06hf/geoms/mol2/5fe5fe-5fe-5fe-.out
 42 45 0 0 0
SMALL
GASTEIGER

@<TRIPOS>ATOM
      1 C          -1.8206   -2.0172   -0.2562 C.ar    1  LIG1        0.0190
      2 C          -0.5362   -1.9243    0.1679 C.ar    1  LIG1        0.1398
      3 C          -0.0654   -0.5609    0.2370 C.ar    1  LIG1        0.0814
      4 C          -1.0201    0.3408   -0.1527 C.ar    1  LIG1        0.0484
      5 S          -2.4804   -0.4598   -0.6028 S.2     1  LIG1       -0.0910
      6 H          -2.4021   -2.9147   -0.3763 H       1  LIG1        0.0731
      7 O           0.2342   -2.9819    0.5108 O.3     1  LIG1       -0.5050
      8 H           1.0941   -2.6576    0.8108 H       1  LIG1        0.2922
      9 C           1.2495   -0.2731    0.7266 C.1     1  LIG1       -0.0648
     10 C           2.3622   -0.1285    1.1603 C.1     1  LIG1       -0.1138
     11 H           3.3445    0.0316    1.5401 H       1  LIG1        0.1232
     12 C          -0.8889    1.7921   -0.2283 C.ar    1  LIG1        0.0704
     13 C           0.1479    2.4950   -0.7675 C.ar    1  LIG1        0.1481
     14 C          -0.0502    3.9218   -0.7133 C.ar    1  LIG1        0.0820
     15 C          -1.2421    4.2639   -0.1301 C.ar    1  LIG1        0.0491
     16 S          -2.1161    2.8641    0.3757 S.2     1  LIG1       -0.0820
     17 O           1.2251    1.9280   -1.3399 O.3     1  LIG1       -0.5044
     18 H           1.8058    2.6234   -1.6779 H       1  LIG1        0.2922
     19 C           0.9106    4.8050   -1.3032 C.1     1  LIG1       -0.0648
     20 C           1.7627    5.4653   -1.8367 C.1     1  LIG1       -0.1138
     21 H           2.5007    6.0774   -2.3011 H       1  LIG1        0.1232
     22 C          -1.7634    5.6082    0.0870 C.ar    1  LIG1        0.0704
     23 C          -1.0852    6.6807    0.5892 C.ar    1  LIG1        0.1481
     24 C          -1.9044    7.8610    0.7009 C.ar    1  LIG1        0.0820
     25 C          -3.1897    7.6492    0.2753 C.ar    1  LIG1        0.0490
     26 S          -3.4094    6.0318   -0.2795 S.2     1  LIG1       -0.0820
     27 O           0.1987    6.6400    0.9861 O.3     1  LIG1       -0.5044
     28 H           0.4457    7.5026    1.3468 H       1  LIG1        0.2922
     29 C          -1.3685    9.0571    1.2791 C.1     1  LIG1       -0.0648
     30 C          -0.8381   10.0081    1.7900 C.1     1  LIG1       -0.1138
     31 H          -0.3942   10.8661    2.2401 H       1  LIG1        0.1232
     32 C          -4.2768    8.6224    0.2411 C.ar    1  LIG1        0.0698
     33 C          -4.2143    9.9012   -0.2305 C.ar    1  LIG1        0.1474
     34 C          -5.4740   10.5960   -0.1208 C.ar    1  LIG1        0.0737
     35 C          -6.4492    9.8121    0.4226 C.ar    1  LIG1       -0.0047
     36 S          -5.8726    8.2517    0.8183 S.2     1  LIG1       -0.0911
     37 H          -7.4738   10.0896    0.6088 H       1  LIG1        0.0707
     38 O          -3.1118   10.4523   -0.7683 O.3     1  LIG1       -0.5044
     39 H          -3.3109   11.3543   -1.0534 H       1  LIG1        0.2922
     40 C          -5.6020   11.9525   -0.5699 C.1     1  LIG1       -0.0655
     41 C          -5.6332   13.0874   -0.9684 C.1     1  LIG1       -0.1138
     42 H          -5.6867   14.0939   -1.3155 H       1  LIG1        0.1232
@<TRIPOS>BOND
     1    21    20    1
     2    20    19    3
     3    18    17    1
     4    17    13    1
     5    42    41    1
     6    19    14    1
     7    39    38    1
     8    41    40    3
     9    38    33    1
    10    13    14   ar
    11    13    12   ar
    12    14    15   ar
    13     5     1   ar
    14     5     4   ar
    15    40    34    1
    16     6     1    1
    17    26    22   ar
    18    26    25   ar
    19     1     2   ar
    20    33    34   ar
    21    33    32   ar
    22    12     4    1
    23    12    16   ar
    24     4     3   ar
    25    15    22    1
    26    15    16   ar
    27    34    35   ar
    28    22    23   ar
    29     2     3   ar
    30     2     7    1
    31     3     9    1
    32    32    25    1
    33    32    36   ar
    34    25    24   ar
    35    35    37    1
    36    35    36   ar
    37     7     8    1
    38    23    24   ar
    39    23    27    1
    40    24    29    1
    41     9    10    3
    42    27    28    1
    43    10    11    1
    44    29    30    3
    45    30    31    1
