@<TRIPOS>MOLECULE
mol_data/opt/m06hf/geoms/mol2/5fe5fe-5fe-5fe.out
 42 45 0 0 0
SMALL
GASTEIGER

@<TRIPOS>ATOM
      1 C          -1.9789   -1.9281    0.1100 C.ar    1  LIG1        0.0190
      2 C          -0.7375   -1.8184    0.6444 C.ar    1  LIG1        0.1398
      3 C          -0.2178   -0.4725    0.5819 C.ar    1  LIG1        0.0814
      4 C          -1.0919    0.3972   -0.0143 C.ar    1  LIG1        0.0484
      5 S          -2.5339   -0.4129   -0.5028 S.2     1  LIG1       -0.0910
      6 H          -2.5841   -2.8160    0.0487 H       1  LIG1        0.0731
      7 O          -0.0477   -2.8429    1.1964 O.3     1  LIG1       -0.5050
      8 H           0.7918   -2.5057    1.5375 H       1  LIG1        0.2922
      9 C           1.0557   -0.1602    1.1583 C.1     1  LIG1       -0.0648
     10 C           2.1276    0.0081    1.6779 C.1     1  LIG1       -0.1138
     11 H           3.0759    0.1880    2.1290 H       1  LIG1        0.1232
     12 C          -0.8965    1.8252   -0.2457 C.ar    1  LIG1        0.0704
     13 C           0.2017    2.4268   -0.7843 C.ar    1  LIG1        0.1481
     14 C           0.0660    3.8583   -0.8869 C.ar    1  LIG1        0.0820
     15 C          -1.1413    4.3044   -0.4165 C.ar    1  LIG1        0.0491
     16 S          -2.1060    3.0011    0.1687 S.2     1  LIG1       -0.0820
     17 O           1.2864    1.7603   -1.2188 O.3     1  LIG1       -0.5044
     18 H           1.9122    2.3891   -1.6037 H       1  LIG1        0.2922
     19 C           1.0994    4.6379   -1.4986 C.1     1  LIG1       -0.0648
     20 C           2.0108    5.2087   -2.0379 C.1     1  LIG1       -0.1138
     21 H           2.8028    5.7431   -2.5092 H       1  LIG1        0.1232
     22 C          -1.6112    5.6843   -0.3582 C.ar    1  LIG1        0.0704
     23 C          -0.9165    6.7690    0.0906 C.ar    1  LIG1        0.1481
     24 C          -1.6736    7.9931    0.0136 C.ar    1  LIG1        0.0820
     25 C          -2.9389    7.7962   -0.4743 C.ar    1  LIG1        0.0490
     26 S          -3.2147    6.1355   -0.8537 S.2     1  LIG1       -0.0820
     27 O           0.3386    6.7108    0.5688 O.3     1  LIG1       -0.5044
     28 H           0.6252    7.5989    0.8230 H       1  LIG1        0.2922
     29 C          -1.0725    9.2370    0.3893 C.1     1  LIG1       -0.0648
     30 C          -0.4849   10.2351    0.7147 C.1     1  LIG1       -0.1138
     31 H           0.0084   11.1359    0.9988 H       1  LIG1        0.1232
     32 C          -3.9815    8.7993   -0.6633 C.ar    1  LIG1        0.0698
     33 C          -4.3693    9.7573    0.2275 C.ar    1  LIG1        0.1474
     34 C          -5.4582   10.5666   -0.2653 C.ar    1  LIG1        0.0737
     35 C          -5.8633   10.1837   -1.5095 C.ar    1  LIG1       -0.0047
     36 S          -4.9435    8.8723   -2.1095 S.2     1  LIG1       -0.0911
     37 H          -6.6543   10.6220   -2.0953 H       1  LIG1        0.0707
     38 O          -3.8254    9.9169    1.4470 O.3     1  LIG1       -0.5044
     39 H          -4.2825   10.6312    1.9112 H       1  LIG1        0.2922
     40 C          -6.0010   11.6239    0.5387 C.1     1  LIG1       -0.0655
     41 C          -6.4015   12.4880    1.2733 C.1     1  LIG1       -0.1138
     42 H          -6.7747   13.2599    1.9069 H       1  LIG1        0.1232
@<TRIPOS>BOND
     1    21    20    1
     2    36    35   ar
     3    36    32   ar
     4    37    35    1
     5    20    19    3
     6    18    17    1
     7    35    34   ar
     8    19    14    1
     9    17    13    1
    10    14    13   ar
    11    14    15   ar
    12    26    25   ar
    13    26    22   ar
    14    13    12   ar
    15    32    25    1
    16    32    33   ar
    17     5     4   ar
    18     5     1   ar
    19    25    24   ar
    20    15    22    1
    21    15    16   ar
    22    22    23   ar
    23    34    33   ar
    24    34    40    1
    25    12     4    1
    26    12    16   ar
    27     4     3   ar
    28    24    23   ar
    29    24    29    1
    30     6     1    1
    31    23    27    1
    32     1     2   ar
    33    33    38    1
    34    29    30    3
    35    40    41    3
    36    27    28    1
    37     3     2   ar
    38     3     9    1
    39     2     7    1
    40    30    31    1
    41     9    10    3
    42     7     8    1
    43    41    42    1
    44    38    39    1
    45    10    11    1
