@<TRIPOS>MOLECULE
mol_data/opt/m06hf/geoms/mol2/5fe5fe5fe5fe.out
 42 45 0 0 0
SMALL
GASTEIGER

@<TRIPOS>ATOM
      1 C          -1.8099   -2.0145    0.3173 C.ar    1  LIG1        0.0190
      2 C          -0.5261   -1.9241   -0.1093 C.ar    1  LIG1        0.1398
      3 C          -0.0573   -0.5609   -0.1933 C.ar    1  LIG1        0.0814
      4 C          -1.0129    0.3435    0.1881 C.ar    1  LIG1        0.0484
      5 S          -2.4714   -0.4545    0.6484 S.2     1  LIG1       -0.0910
      6 H          -2.3899   -2.9115    0.4475 H       1  LIG1        0.0731
      7 O           0.2454   -2.9842   -0.4421 O.3     1  LIG1       -0.5050
      8 H           1.1043   -2.6618   -0.7470 H       1  LIG1        0.2922
      9 C           1.2565   -0.2765   -0.6876 C.1     1  LIG1       -0.0648
     10 C           2.3684   -0.1349   -1.1243 C.1     1  LIG1       -0.1138
     11 H           3.3500    0.0225   -1.5070 H       1  LIG1        0.1232
     12 C          -0.8837    1.7957    0.2483 C.ar    1  LIG1        0.0704
     13 C           0.1528    2.5056    0.7790 C.ar    1  LIG1        0.1481
     14 C          -0.0474    3.9315    0.7102 C.ar    1  LIG1        0.0820
     15 C          -1.2404    4.2658    0.1248 C.ar    1  LIG1        0.0491
     16 S          -2.1130    2.8596   -0.3653 S.2     1  LIG1       -0.0820
     17 O           1.2314    1.9461    1.3560 O.3     1  LIG1       -0.5044
     18 H           1.8116    2.6458    1.6861 H       1  LIG1        0.2922
     19 C           0.9128    4.8220    1.2899 C.1     1  LIG1       -0.0648
     20 C           1.7646    5.4889    1.8157 C.1     1  LIG1       -0.1138
     21 H           2.5023    6.1067    2.2730 H       1  LIG1        0.1232
     22 C          -1.7639    5.6070   -0.1057 C.ar    1  LIG1        0.0704
     23 C          -1.0877    6.6753   -0.6194 C.ar    1  LIG1        0.1481
     24 C          -1.9088    7.8532   -0.7425 C.ar    1  LIG1        0.0820
     25 C          -3.1934    7.6439   -0.3136 C.ar    1  LIG1        0.0490
     26 S          -3.4103    6.0319    0.2579 S.2     1  LIG1       -0.0820
     27 O           0.1958    6.6324   -1.0171 O.3     1  LIG1       -0.5044
     28 H           0.4413    7.4917   -1.3866 H       1  LIG1        0.2922
     29 C          -1.3751    9.0441   -1.3333 C.1     1  LIG1       -0.0648
     30 C          -0.8464    9.9906   -1.8543 C.1     1  LIG1       -0.1138
     31 H          -0.4042   10.8446   -2.3134 H       1  LIG1        0.1232
     32 C          -4.2819    8.6158   -0.2885 C.ar    1  LIG1        0.0698
     33 C          -4.2209    9.8995    0.1699 C.ar    1  LIG1        0.1474
     34 C          -5.4817   10.5912    0.0541 C.ar    1  LIG1        0.0737
     35 C          -6.4561    9.8004   -0.4804 C.ar    1  LIG1       -0.0047
     36 S          -5.8776    8.2369   -0.8605 S.2     1  LIG1       -0.0911
     37 H          -7.4813   10.0745   -0.6687 H       1  LIG1        0.0707
     38 O          -3.1188   10.4577    0.7010 O.3     1  LIG1       -0.5044
     39 H          -3.3189   11.3623    0.9768 H       1  LIG1        0.2922
     40 C          -5.6113   11.9522    0.4892 C.1     1  LIG1       -0.0655
     41 C          -5.6439   13.0910    0.8761 C.1     1  LIG1       -0.1138
     42 H          -5.6985   14.1010    1.2129 H       1  LIG1        0.1232
@<TRIPOS>BOND
     1    31    30    1
     2    30    29    3
     3    11    10    1
     4    28    27    1
     5    29    24    1
     6    10     9    3
     7    27    23    1
     8    36    35   ar
     9    36    32   ar
    10     8     7    1
    11    24    23   ar
    12    24    25   ar
    13     9     3    1
    14    37    35    1
    15    23    22   ar
    16    35    34   ar
    17     7     2    1
    18    16    15   ar
    19    16    12   ar
    20    25    32    1
    21    25    26   ar
    22    32    33   ar
    23     3     2   ar
    24     3     4   ar
    25     2     1   ar
    26    22    15    1
    27    22    26   ar
    28    34    33   ar
    29    34    40    1
    30    15    14   ar
    31    33    38    1
    32     4    12    1
    33     4     5   ar
    34    12    13   ar
    35     1     6    1
    36     1     5   ar
    37    40    41    3
    38    38    39    1
    39    14    13   ar
    40    14    19    1
    41    13    17    1
    42    41    42    1
    43    19    20    3
    44    17    18    1
    45    20    21    1
