@<TRIPOS>MOLECULE
mol_data/opt/m06hf/geoms/mol2/5fe5fe5fe.out
 32 34 0 0 0
SMALL
GASTEIGER

@<TRIPOS>ATOM
      1 C          -1.8840   -1.9231    0.3886 C.ar    1  LIG1        0.0190
      2 C          -0.6731   -1.8309   -0.2145 C.ar    1  LIG1        0.1398
      3 C          -0.1904   -0.4725   -0.2979 C.ar    1  LIG1        0.0814
      4 C          -1.0592    0.4253    0.2644 C.ar    1  LIG1        0.0484
      5 S          -2.4518   -0.3735    0.8943 S.2     1  LIG1       -0.0910
      6 H          -2.4581   -2.8173    0.5591 H       1  LIG1        0.0731
      7 O           0.0188   -2.8836   -0.7070 O.3     1  LIG1       -0.5050
      8 H           0.8334   -2.5594   -1.1141 H       1  LIG1        0.2922
      9 C           1.0428   -0.1825   -0.9659 C.1     1  LIG1       -0.0648
     10 C           2.0820   -0.0350   -1.5537 C.1     1  LIG1       -0.1138
     11 H           2.9997    0.1288   -2.0697 H       1  LIG1        0.1232
     12 C          -0.8959    1.8724    0.3639 C.ar    1  LIG1        0.0704
     13 C           0.2137    2.5482    0.7787 C.ar    1  LIG1        0.1481
     14 C           0.0327    3.9783    0.7847 C.ar    1  LIG1        0.0820
     15 C          -1.2192    4.3492    0.3701 C.ar    1  LIG1        0.0490
     16 S          -2.1735    2.9751   -0.0502 S.2     1  LIG1       -0.0820
     17 O           1.3473    1.9506    1.1868 O.3     1  LIG1       -0.5044
     18 H           1.9807    2.6250    1.4691 H       1  LIG1        0.2922
     19 C           1.0794    4.8347    1.2568 C.1     1  LIG1       -0.0648
     20 C           2.0091    5.4710    1.6791 C.1     1  LIG1       -0.1138
     21 H           2.8191    6.0591    2.0452 H       1  LIG1        0.1232
     22 C          -1.7460    5.7045    0.2434 C.ar    1  LIG1        0.0698
     23 C          -1.1317    6.7736   -0.3418 C.ar    1  LIG1        0.1474
     24 C          -1.9473    7.9637   -0.3197 C.ar    1  LIG1        0.0737
     25 C          -3.1564    7.7492    0.2742 C.ar    1  LIG1       -0.0047
     26 S          -3.3236    6.1383    0.8244 S.2     1  LIG1       -0.0911
     27 H          -3.9451    8.4700    0.4151 H       1  LIG1        0.0707
     28 O           0.0868    6.7232   -0.9089 O.3     1  LIG1       -0.5044
     29 H           0.3155    7.5959   -1.2565 H       1  LIG1        0.2922
     30 C          -1.4712    9.1877   -0.8969 C.1     1  LIG1       -0.0655
     31 C          -1.0061   10.1749   -1.4024 C.1     1  LIG1       -0.1138
     32 H          -0.6187   11.0633   -1.8459 H       1  LIG1        0.1232
@<TRIPOS>BOND
     1    11    10    1
     2    32    31    1
     3    10     9    3
     4    31    30    3
     5    29    28    1
     6     8     7    1
     7     9     3    1
     8    28    23    1
     9    30    24    1
    10     7     2    1
    11    23    24   ar
    12    23    22   ar
    13    24    25   ar
    14     3     2   ar
    15     3     4   ar
    16     2     1   ar
    17    16    12   ar
    18    16    15   ar
    19    22    15    1
    20    22    26   ar
    21     4    12    1
    22     4     5   ar
    23    25    27    1
    24    25    26   ar
    25    12    13   ar
    26    15    14   ar
    27     1     6    1
    28     1     5   ar
    29    13    14   ar
    30    13    17    1
    31    14    19    1
    32    17    18    1
    33    19    20    3
    34    20    21    1
