@<TRIPOS>MOLECULE
mol_data/opt/m06hf/geoms/mol2/5fe5fe5fe-.out
 32 34 0 0 0
SMALL
GASTEIGER

@<TRIPOS>ATOM
      1 C          -1.8422   -1.7525    1.2361 C.ar    1  LIG1        0.0190
      2 C          -0.7385   -1.8375    0.4527 C.ar    1  LIG1        0.1398
      3 C          -0.2583   -0.5467    0.0189 C.ar    1  LIG1        0.0814
      4 C          -1.0195    0.4836    0.5041 C.ar    1  LIG1        0.0484
      5 S          -2.3094   -0.1092    1.4856 S.2     1  LIG1       -0.0910
      6 H          -2.3942   -2.5679    1.6700 H       1  LIG1        0.0731
      7 O          -0.1453   -2.9974    0.0895 O.3     1  LIG1       -0.5050
      8 H           0.6110   -2.7973   -0.4785 H       1  LIG1        0.2922
      9 C           0.8611   -0.4517   -0.8697 C.1     1  LIG1       -0.0648
     10 C           1.7970   -0.4711   -1.6255 C.1     1  LIG1       -0.1138
     11 H           2.6247   -0.4553   -2.2963 H       1  LIG1        0.1232
     12 C          -0.8145    1.9123    0.2862 C.ar    1  LIG1        0.0704
     13 C           0.3626    2.5942    0.3794 C.ar    1  LIG1        0.1481
     14 C           0.2238    3.9993    0.0898 C.ar    1  LIG1        0.0820
     15 C          -1.0696    4.3494   -0.1959 C.ar    1  LIG1        0.0490
     16 S          -2.1195    2.9849   -0.1239 S.2     1  LIG1       -0.0820
     17 O           1.5350    2.0262    0.7140 O.3     1  LIG1       -0.5044
     18 H           2.2235    2.7050    0.7341 H       1  LIG1        0.2922
     19 C           1.3755    4.8505    0.0778 C.1     1  LIG1       -0.0648
     20 C           2.3970    5.4855    0.0802 C.1     1  LIG1       -0.1138
     21 H           3.2860    6.0727    0.0750 H       1  LIG1        0.1232
     22 C          -1.5679    5.6796   -0.5328 C.ar    1  LIG1        0.0698
     23 C          -1.2809    6.8491    0.1082 C.ar    1  LIG1        0.1474
     24 C          -1.9339    7.9869   -0.4925 C.ar    1  LIG1        0.0737
     25 C          -2.7000    7.6340   -1.5649 C.ar    1  LIG1       -0.0047
     26 S          -2.6409    5.9529   -1.8706 S.2     1  LIG1       -0.0911
     27 H          -3.2904    8.2916   -2.1815 H       1  LIG1        0.0707
     28 O          -0.4997    6.9352    1.1995 O.3     1  LIG1       -0.5044
     29 H          -0.4348    7.8592    1.4760 H       1  LIG1        0.2922
     30 C          -1.7569    9.3035    0.0490 C.1     1  LIG1       -0.0655
     31 C          -1.5638   10.3767    0.5567 C.1     1  LIG1       -0.1138
     32 H          -1.4088   11.3390    0.9878 H       1  LIG1        0.1232
@<TRIPOS>BOND
     1    11    10    1
     2    27    25    1
     3    26    25   ar
     4    26    22   ar
     5    10     9    3
     6    25    24   ar
     7     9     3    1
     8    22    15    1
     9    22    23   ar
    10    24    30    1
    11    24    23   ar
    12     8     7    1
    13    15    16   ar
    14    15    14   ar
    15    16    12   ar
    16     3     2   ar
    17     3     4   ar
    18    30    31    3
    19    21    20    1
    20    19    20    3
    21    19    14    1
    22     7     2    1
    23    14    13   ar
    24    23    28    1
    25    12    13   ar
    26    12     4    1
    27    13    17    1
    28     2     1   ar
    29     4     5   ar
    30    31    32    1
    31    17    18    1
    32    28    29    1
    33     1     5   ar
    34     1     6    1
