@<TRIPOS>MOLECULE
mol_data/opt/m06hf/geoms/mol2/5ff.out
 11 11 0 0 0
SMALL
GASTEIGER

@<TRIPOS>ATOM
      1 C          -2.0974   -1.7290    0.0000 C.ar    1  LIG1        0.0209
      2 C          -0.7450   -1.6844   -0.0003 C.ar    1  LIG1        0.1654
      3 C          -0.2413   -0.3331   -0.0001 C.ar    1  LIG1        0.1654
      4 C          -1.2191    0.6022    0.0004 C.ar    1  LIG1        0.0209
      5 S          -2.7807   -0.1400    0.0006 S.2     1  LIG1       -0.0976
      6 H          -2.7191   -2.6079   -0.0001 H       1  LIG1        0.0731
      7 H          -1.1152    1.6752    0.0007 H       1  LIG1        0.0731
      8 O           0.0909   -2.7509   -0.0008 O.3     1  LIG1       -0.5029
      9 H           0.9996   -2.4221   -0.0011 H       1  LIG1        0.2923
     10 O           1.1165   -0.1903   -0.0004 O.3     1  LIG1       -0.5029
     11 H           1.3720    0.7379   -0.0004 H       1  LIG1        0.2923
@<TRIPOS>BOND
     1     9     8    1
     2     8     2    1
     3    10    11    1
     4    10     3    1
     5     2     3   ar
     6     2     1   ar
     7     3     4   ar
     8     6     1    1
     9     1     5   ar
    10     4     5   ar
    11     4     7    1
