@<TRIPOS>MOLECULE
mol_data/opt/m06hf/geoms/mol2/5ff5ff.out
 20 21 0 0 0
SMALL
GASTEIGER

@<TRIPOS>ATOM
      1 C          -2.0552   -1.8423    0.3203 C.ar    1  LIG1        0.0215
      2 C          -0.7534   -1.7971   -0.0433 C.ar    1  LIG1        0.1661
      3 C          -0.2614   -0.4501   -0.1934 C.ar    1  LIG1        0.1740
      4 C          -1.2064    0.4945    0.0687 C.ar    1  LIG1        0.0747
      5 S          -2.7144   -0.2524    0.5223 S.2     1  LIG1       -0.0885
      6 H          -2.6538   -2.7196    0.4942 H       1  LIG1        0.0731
      7 O           0.0556   -2.8571   -0.2721 O.3     1  LIG1       -0.5029
      8 H           0.9294   -2.5119   -0.5036 H       1  LIG1        0.2923
      9 O           1.0227   -0.2950   -0.5983 O.3     1  LIG1       -0.5025
     10 H           1.3921    0.5313   -0.2369 H       1  LIG1        0.2923
     11 C          -1.0379    1.9406   -0.0111 C.ar    1  LIG1        0.0747
     12 C           0.1004    2.6442    0.2187 C.ar    1  LIG1        0.1740
     13 C          -0.0483    4.0579    0.0257 C.ar    1  LIG1        0.1661
     14 C          -1.3038    4.4108   -0.3351 C.ar    1  LIG1        0.0215
     15 S          -2.3239    3.0184   -0.4786 S.2     1  LIG1       -0.0885
     16 H          -1.6891    5.3984   -0.5275 H       1  LIG1        0.0731
     17 O           1.2917    2.1001    0.6099 O.3     1  LIG1       -0.5025
     18 H           1.9382    2.8116    0.7194 H       1  LIG1        0.2923
     19 O           1.0623    4.8171    0.2494 O.3     1  LIG1       -0.5029
     20 H           0.8878    5.7532    0.1078 H       1  LIG1        0.2923
@<TRIPOS>BOND
     1     9    10    1
     2     9     3    1
     3    16    14    1
     4     8     7    1
     5    15    14   ar
     6    15    11   ar
     7    14    13   ar
     8     7     2    1
     9     3     2   ar
    10     3     4   ar
    11     2     1   ar
    12    11     4    1
    13    11    12   ar
    14    13    12   ar
    15    13    19    1
    16     4     5   ar
    17    20    19    1
    18    12    17    1
    19     1     6    1
    20     1     5   ar
    21    17    18    1
