@<TRIPOS>MOLECULE
mol_data/opt/m06hf/geoms/mol2/5ff5ff5ff.out
 29 31 0 0 0
SMALL
GASTEIGER

@<TRIPOS>ATOM
      1 C          -1.9996   -1.9836    0.0751 C.ar    1  LIG1        0.0215
      2 C          -0.6925   -1.8812   -0.2565 C.ar    1  LIG1        0.1661
      3 C          -0.2176   -0.5198   -0.2445 C.ar    1  LIG1        0.1740
      4 C          -1.1805    0.3773    0.1077 C.ar    1  LIG1        0.0747
      5 S          -2.6849   -0.4347    0.4438 S.2     1  LIG1       -0.0885
      6 H          -2.5881   -2.8823    0.1386 H       1  LIG1        0.0731
      7 O           0.1383   -2.8978   -0.5839 O.3     1  LIG1       -0.5029
      8 H           1.0079   -2.5133   -0.7632 H       1  LIG1        0.2923
      9 O           1.0679   -0.3056   -0.6138 O.3     1  LIG1       -0.5025
     10 H           1.4184    0.4919   -0.1752 H       1  LIG1        0.2923
     11 C          -1.0348    1.8248    0.1859 C.ar    1  LIG1        0.0753
     12 C           0.0950    2.5221    0.4739 C.ar    1  LIG1        0.1746
     13 C          -0.0717    3.9443    0.4430 C.ar    1  LIG1        0.1746
     14 C          -1.3453    4.3168    0.1322 C.ar    1  LIG1        0.0753
     15 S          -2.3417    2.9202   -0.1723 S.2     1  LIG1       -0.0794
     16 O           1.3015    1.9715    0.7986 O.3     1  LIG1       -0.5025
     17 H           1.9276    2.6953    0.9526 H       1  LIG1        0.2923
     18 O           0.9999    4.7041    0.7730 O.3     1  LIG1       -0.5025
     19 H           0.9553    5.5664    0.3183 H       1  LIG1        0.2923
     20 C          -1.8578    5.6789    0.0610 C.ar    1  LIG1        0.0747
     21 C          -1.1602    6.7931   -0.2803 C.ar    1  LIG1        0.1740
     22 C          -1.9373    7.9971   -0.2230 C.ar    1  LIG1        0.1661
     23 C          -3.2196    7.7772    0.1489 C.ar    1  LIG1        0.0215
     24 S          -3.4974    6.0975    0.4652 S.2     1  LIG1       -0.0885
     25 H          -4.0156    8.4957    0.2568 H       1  LIG1        0.0731
     26 O           0.1528    6.8095   -0.6597 O.3     1  LIG1       -0.5025
     27 H           0.4034    7.7181   -0.8794 H       1  LIG1        0.2923
     28 O          -1.2878    9.1473   -0.5593 O.3     1  LIG1       -0.5029
     29 H          -1.8672    9.9147   -0.5103 H       1  LIG1        0.2923
@<TRIPOS>BOND
     1    27    26    1
     2     8     7    1
     3    26    21    1
     4     9     3    1
     5     9    10    1
     6     7     2    1
     7    28    29    1
     8    28    22    1
     9    21    22   ar
    10    21    20   ar
    11     2     3   ar
    12     2     1   ar
    13     3     4   ar
    14    22    23   ar
    15    15    14   ar
    16    15    11   ar
    17    20    14    1
    18    20    24   ar
    19     1     6    1
    20     1     5   ar
    21     4    11    1
    22     4     5   ar
    23    14    13   ar
    24    23    25    1
    25    23    24   ar
    26    11    12   ar
    27    19    18    1
    28    13    12   ar
    29    13    18    1
    30    12    16    1
    31    16    17    1
