@<TRIPOS>MOLECULE
mol_data/opt/m06hf/geoms/mol2/5ff5ff5ff-5ff-.out
 38 41 0 0 0
SMALL
GASTEIGER

@<TRIPOS>ATOM
      1 C          -1.7054   -2.0864    0.7082 C.ar    1  LIG1        0.0215
      2 C          -0.6345   -1.9899   -0.1112 C.ar    1  LIG1        0.1661
      3 C          -0.2420   -0.6251   -0.3605 C.ar    1  LIG1        0.1740
      4 C          -1.0251    0.2808    0.2895 C.ar    1  LIG1        0.0747
      5 S          -2.2490   -0.5253    1.2305 S.2     1  LIG1       -0.0885
      6 H          -2.1907   -2.9858    1.0456 H       1  LIG1        0.0731
      7 O           0.0426   -3.0150   -0.6790 O.3     1  LIG1       -0.5029
      8 H           0.7557   -2.6295   -1.2073 H       1  LIG1        0.2923
      9 O           0.7935   -0.4194   -1.2096 O.3     1  LIG1       -0.5025
     10 H           1.2620    0.4045   -0.9795 H       1  LIG1        0.2923
     11 C          -0.9034    1.7319    0.2345 C.ar    1  LIG1        0.0753
     12 C           0.2324    2.4511    0.0433 C.ar    1  LIG1        0.1746
     13 C           0.0295    3.8685   -0.0018 C.ar    1  LIG1        0.1746
     14 C          -1.2744    4.2181    0.1901 C.ar    1  LIG1        0.0753
     15 S          -2.2702    2.8005    0.3973 S.2     1  LIG1       -0.0794
     16 O           1.4849    1.9261   -0.0949 O.3     1  LIG1       -0.5025
     17 H           2.1058    2.6625   -0.2018 H       1  LIG1        0.2923
     18 O           1.1158    4.6404   -0.2396 O.3     1  LIG1       -0.5025
     19 H           0.9994    5.5245    0.1595 H       1  LIG1        0.2923
     20 C          -1.8246    5.5661    0.2135 C.ar    1  LIG1        0.0753
     21 C          -1.1779    6.7145    0.5448 C.ar    1  LIG1        0.1746
     22 C          -1.9898    7.8905    0.4531 C.ar    1  LIG1        0.1746
     23 C          -3.2647    7.6182    0.0571 C.ar    1  LIG1        0.0753
     24 S          -3.4670    5.9183   -0.2594 S.2     1  LIG1       -0.0794
     25 O           0.1169    6.8018    0.9702 O.3     1  LIG1       -0.5025
     26 H           0.3208    7.7392    1.1112 H       1  LIG1        0.2923
     27 O          -1.4241    9.0675    0.8115 O.3     1  LIG1       -0.5025
     28 H          -1.8361    9.8033    0.3203 H       1  LIG1        0.2923
     29 C          -4.3503    8.5788   -0.0881 C.ar    1  LIG1        0.0747
     30 C          -4.2371    9.8876   -0.4344 C.ar    1  LIG1        0.1740
     31 C          -5.4893   10.5865   -0.4504 C.ar    1  LIG1        0.1661
     32 C          -6.5371    9.7933   -0.1272 C.ar    1  LIG1        0.0215
     33 S          -6.0132    8.1833    0.2336 S.2     1  LIG1       -0.0885
     34 H          -7.5817   10.0542   -0.0780 H       1  LIG1        0.0731
     35 O          -3.0647   10.5133   -0.7528 O.3     1  LIG1       -0.5025
     36 H          -3.2551   11.4311   -0.9945 H       1  LIG1        0.2923
     37 O          -5.4403   11.9041   -0.7963 O.3     1  LIG1       -0.5029
     38 H          -6.3146   12.3072   -0.7891 H       1  LIG1        0.2923
@<TRIPOS>BOND
     1     9    10    1
     2     9     3    1
     3     8     7    1
     4    36    35    1
     5    37    38    1
     6    37    31    1
     7    35    30    1
     8     7     2    1
     9    31    30   ar
    10    31    32   ar
    11    30    29   ar
    12     3     2   ar
    13     3     4   ar
    14    24    23   ar
    15    24    20   ar
    16    18    13    1
    17    18    19    1
    18    17    16    1
    19    32    34    1
    20    32    33   ar
    21     2     1   ar
    22    16    12    1
    23    29    23    1
    24    29    33   ar
    25    13    12   ar
    26    13    14   ar
    27    12    11   ar
    28    23    22   ar
    29    14    20    1
    30    14    15   ar
    31    20    21   ar
    32    11     4    1
    33    11    15   ar
    34     4     5   ar
    35    28    27    1
    36    22    21   ar
    37    22    27    1
    38    21    25    1
    39     1     6    1
    40     1     5   ar
    41    25    26    1
