@<TRIPOS>MOLECULE
mol_data/opt/m06hf/geoms/mol2/5ff5ff5ff5ff-.out
 38 41 0 0 0
SMALL
GASTEIGER

@<TRIPOS>ATOM
      1 C          -1.8729   -2.1119    0.1356 C.ar    1  LIG1        0.0215
      2 C          -0.5554   -1.9974   -0.1454 C.ar    1  LIG1        0.1661
      3 C          -0.1057   -0.6279   -0.1730 C.ar    1  LIG1        0.1740
      4 C          -1.0981    0.2644    0.1014 C.ar    1  LIG1        0.0747
      5 S          -2.6000   -0.5626    0.4094 S.2     1  LIG1       -0.0885
      6 H          -2.4484   -3.0182    0.2120 H       1  LIG1        0.0731
      7 O           0.3077   -3.0100   -0.3931 O.3     1  LIG1       -0.5029
      8 H           1.1763   -2.6148   -0.5536 H       1  LIG1        0.2923
      9 O           1.1913   -0.4043   -0.4949 O.3     1  LIG1       -0.5025
     10 H           1.5097    0.4128   -0.0678 H       1  LIG1        0.2923
     11 C          -0.9794    1.7162    0.1387 C.ar    1  LIG1        0.0753
     12 C           0.1233    2.4410    0.4574 C.ar    1  LIG1        0.1746
     13 C          -0.0673    3.8588    0.3851 C.ar    1  LIG1        0.1746
     14 C          -1.3324    4.1996    0.0109 C.ar    1  LIG1        0.0753
     15 S          -2.2890    2.7765   -0.3043 S.2     1  LIG1       -0.0794
     16 O           1.3247    1.9212    0.8462 O.3     1  LIG1       -0.5025
     17 H           1.9298    2.6599    1.0116 H       1  LIG1        0.2923
     18 O           0.9768    4.6463    0.7363 O.3     1  LIG1       -0.5025
     19 H           0.9291    5.4996    0.2641 H       1  LIG1        0.2923
     20 C          -1.8630    5.5487   -0.1242 C.ar    1  LIG1        0.0753
     21 C          -1.1713    6.6700   -0.4534 C.ar    1  LIG1        0.1746
     22 C          -1.9670    7.8607   -0.4809 C.ar    1  LIG1        0.1746
     23 C          -3.2722    7.6258   -0.1694 C.ar    1  LIG1        0.0753
     24 S          -3.5280    5.9445    0.2095 S.2     1  LIG1       -0.0794
     25 O           0.1580    6.7167   -0.7620 O.3     1  LIG1       -0.5025
     26 H           0.3887    7.6414   -0.9405 H       1  LIG1        0.2923
     27 O          -1.3534    9.0096   -0.8512 O.3     1  LIG1       -0.5025
     28 H          -1.7915    9.7761   -0.4346 H       1  LIG1        0.2923
     29 C          -4.3491    8.6073   -0.1400 C.ar    1  LIG1        0.0747
     30 C          -4.2371    9.9302    0.1483 C.ar    1  LIG1        0.1740
     31 C          -5.4801   10.6410    0.0714 C.ar    1  LIG1        0.1661
     32 C          -6.5216    9.8433   -0.2599 C.ar    1  LIG1        0.0215
     33 S          -6.0007    8.2123   -0.5166 S.2     1  LIG1       -0.0885
     34 H          -7.5589   10.1122   -0.3741 H       1  LIG1        0.0731
     35 O          -3.0762   10.5602    0.4995 O.3     1  LIG1       -0.5025
     36 H          -3.2671   11.4930    0.6744 H       1  LIG1        0.2923
     37 O          -5.4301   11.9740    0.3529 O.3     1  LIG1       -0.5029
     38 H          -6.3047   12.3759    0.3324 H       1  LIG1        0.2923
@<TRIPOS>BOND
     1    26    25    1
     2    27    22    1
     3    27    28    1
     4    25    21    1
     5     8     7    1
     6    33    32   ar
     7    33    29   ar
     8     9     3    1
     9     9    10    1
    10    22    21   ar
    11    22    23   ar
    12    21    20   ar
    13     7     2    1
    14    34    32    1
    15    15    14   ar
    16    15    11   ar
    17    32    31   ar
    18     3     2   ar
    19     3     4   ar
    20    23    29    1
    21    23    24   ar
    22     2     1   ar
    23    29    30   ar
    24    20    14    1
    25    20    24   ar
    26    14    13   ar
    27    31    30   ar
    28    31    37    1
    29     4    11    1
    30     4     5   ar
    31     1     6    1
    32     1     5   ar
    33    11    12   ar
    34    30    35    1
    35    19    18    1
    36    38    37    1
    37    13    12   ar
    38    13    18    1
    39    12    16    1
    40    35    36    1
    41    16    17    1
