@<TRIPOS>MOLECULE
mol_data/opt/m06hf/geoms/mol2/5ff5ff-5ff5ff.out
 38 41 0 0 0
SMALL
GASTEIGER

@<TRIPOS>ATOM
      1 C          -1.8724   -2.1124    0.1414 C.ar    1  LIG1        0.0215
      2 C          -0.5567   -1.9972   -0.1481 C.ar    1  LIG1        0.1661
      3 C          -0.1073   -0.6276   -0.1758 C.ar    1  LIG1        0.1740
      4 C          -1.0978    0.2640    0.1073 C.ar    1  LIG1        0.0747
      5 S          -2.5976   -0.5637    0.4235 S.2     1  LIG1       -0.0885
      6 H          -2.4473   -3.0189    0.2197 H       1  LIG1        0.0731
      7 O           0.3047   -3.0092   -0.4036 O.3     1  LIG1       -0.5029
      8 H           1.1721   -2.6135   -0.5694 H       1  LIG1        0.2923
      9 O           1.1875   -0.4033   -0.5061 O.3     1  LIG1       -0.5025
     10 H           1.5087    0.4128   -0.0793 H       1  LIG1        0.2923
     11 C          -0.9788    1.7158    0.1474 C.ar    1  LIG1        0.0753
     12 C           0.1262    2.4397    0.4605 C.ar    1  LIG1        0.1746
     13 C          -0.0648    3.8577    0.3931 C.ar    1  LIG1        0.1746
     14 C          -1.3324    4.1995    0.0282 C.ar    1  LIG1        0.0753
     15 S          -2.2912    2.7773   -0.2841 S.2     1  LIG1       -0.0794
     16 O           1.3301    1.9188    0.8398 O.3     1  LIG1       -0.5025
     17 H           1.9362    2.6571    1.0036 H       1  LIG1        0.2923
     18 O           0.9817    4.6442    0.7392 O.3     1  LIG1       -0.5025
     19 H           0.9308    5.4987    0.2696 H       1  LIG1        0.2923
     20 C          -1.8639    5.5489   -0.0996 C.ar    1  LIG1        0.0753
     21 C          -1.1744    6.6712   -0.4304 C.ar    1  LIG1        0.1746
     22 C          -1.9702    7.8619   -0.4495 C.ar    1  LIG1        0.1746
     23 C          -3.2733    7.6261   -0.1298 C.ar    1  LIG1        0.0753
     24 S          -3.5266    5.9439    0.2464 S.2     1  LIG1       -0.0794
     25 O           0.1529    6.7187   -0.7477 O.3     1  LIG1       -0.5025
     26 H           0.3823    7.6439   -0.9253 H       1  LIG1        0.2923
     27 O          -1.3592    9.0118   -0.8207 O.3     1  LIG1       -0.5025
     28 H          -1.7942    9.7771   -0.3988 H       1  LIG1        0.2923
     29 C          -4.3499    8.6076   -0.0906 C.ar    1  LIG1        0.0747
     30 C          -4.2359    9.9298    0.2006 C.ar    1  LIG1        0.1740
     31 C          -5.4792   10.6410    0.1333 C.ar    1  LIG1        0.1661
     32 C          -6.5229    9.8442   -0.1935 C.ar    1  LIG1        0.0215
     33 S          -6.0040    8.2139   -0.4573 S.2     1  LIG1       -0.0885
     34 H          -7.5608   10.1137   -0.3005 H       1  LIG1        0.0731
     35 O          -3.0727   10.5588    0.5459 O.3     1  LIG1       -0.5025
     36 H          -3.2625   11.4911    0.7244 H       1  LIG1        0.2923
     37 O          -5.4272   11.9733    0.4175 O.3     1  LIG1       -0.5029
     38 H          -6.3021   12.3748    0.4063 H       1  LIG1        0.2923
@<TRIPOS>BOND
     1    26    25    1
     2    27    22    1
     3    27    28    1
     4    25    21    1
     5     8     7    1
     6     9     3    1
     7     9    10    1
     8    33    32   ar
     9    33    29   ar
    10    22    21   ar
    11    22    23   ar
    12    21    20   ar
    13     7     2    1
    14    34    32    1
    15    15    14   ar
    16    15    11   ar
    17    32    31   ar
    18     3     2   ar
    19     3     4   ar
    20     2     1   ar
    21    23    29    1
    22    23    24   ar
    23    20    14    1
    24    20    24   ar
    25    29    30   ar
    26    14    13   ar
    27     4    11    1
    28     4     5   ar
    29    31    30   ar
    30    31    37    1
    31     1     6    1
    32     1     5   ar
    33    11    12   ar
    34    30    35    1
    35    19    18    1
    36    13    12   ar
    37    13    18    1
    38    38    37    1
    39    12    16    1
    40    35    36    1
    41    16    17    1
