@<TRIPOS>MOLECULE
mol_data/opt/m06hf/geoms/mol2/5ff5ff5ff-.out
 29 31 0 0 0
SMALL
GASTEIGER

@<TRIPOS>ATOM
      1 C          -1.9207   -1.9371    0.7044 C.ar    1  LIG1        0.0215
      2 C          -0.7433   -1.8978    0.0402 C.ar    1  LIG1        0.1661
      3 C          -0.2902   -0.5533   -0.2162 C.ar    1  LIG1        0.1740
      4 C          -1.1367    0.3963    0.2720 C.ar    1  LIG1        0.0747
      5 S          -2.4972   -0.3416    1.0688 S.2     1  LIG1       -0.0885
      6 H          -2.4682   -2.8106    1.0126 H       1  LIG1        0.0731
      7 O          -0.0180   -2.9606   -0.3785 O.3     1  LIG1       -0.5029
      8 H           0.7760   -2.6156   -0.8103 H       1  LIG1        0.2923
      9 O           0.8563   -0.4049   -0.9221 O.3     1  LIG1       -0.5025
     10 H           1.3096    0.4192   -0.6648 H       1  LIG1        0.2923
     11 C          -0.9789    1.8402    0.1569 C.ar    1  LIG1        0.0753
     12 C           0.1868    2.5339    0.0917 C.ar    1  LIG1        0.1746
     13 C           0.0188    3.9472   -0.0721 C.ar    1  LIG1        0.1746
     14 C          -1.2916    4.3195   -0.1080 C.ar    1  LIG1        0.0753
     15 S          -2.3341    2.9302    0.0443 S.2     1  LIG1       -0.0794
     16 O           1.4354    1.9876    0.1722 O.3     1  LIG1       -0.5025
     17 H           2.0794    2.7090    0.1056 H       1  LIG1        0.2923
     18 O           1.1398    4.6998   -0.1838 O.3     1  LIG1       -0.5025
     19 H           0.9871    5.5876    0.1911 H       1  LIG1        0.2923
     20 C          -1.8081    5.6758   -0.2407 C.ar    1  LIG1        0.0747
     21 C          -1.2169    6.8183    0.1967 C.ar    1  LIG1        0.1740
     22 C          -1.9698    8.0030   -0.0974 C.ar    1  LIG1        0.1661
     23 C          -3.1297    7.7415   -0.7440 C.ar    1  LIG1        0.0215
     24 S          -3.3108    6.0427   -1.0345 S.2     1  LIG1       -0.0885
     25 H          -3.8832    8.4385   -1.0719 H       1  LIG1        0.0731
     26 O          -0.0317    6.8756    0.8743 O.3     1  LIG1       -0.5025
     27 H           0.1606    7.7984    1.0933 H       1  LIG1        0.2923
     28 O          -1.4279    9.1817    0.3221 O.3     1  LIG1       -0.5029
     29 H          -2.0256    9.9215    0.1729 H       1  LIG1        0.2923
@<TRIPOS>BOND
     1    25    23    1
     2    24    23   ar
     3    24    20   ar
     4     9    10    1
     5     9     3    1
     6     8     7    1
     7    23    22   ar
     8     7     2    1
     9    20    14    1
    10    20    21   ar
    11     3     2   ar
    12     3     4   ar
    13    18    13    1
    14    18    19    1
    15    14    13   ar
    16    14    15   ar
    17    22    21   ar
    18    22    28    1
    19    13    12   ar
    20     2     1   ar
    21    15    11   ar
    22    12    11   ar
    23    12    16    1
    24    17    16    1
    25    11     4    1
    26    29    28    1
    27    21    26    1
    28     4     5   ar
    29     1     6    1
    30     1     5   ar
    31    26    27    1
