@<TRIPOS>MOLECULE
mol_data/opt/m06hf/geoms/mol2/5ff5ff-5ff.out
 29 31 0 0 0
SMALL
GASTEIGER

@<TRIPOS>ATOM
      1 C          -1.9147   -1.9386    0.7056 C.ar    1  LIG1        0.0215
      2 C          -0.7411   -1.8978    0.0348 C.ar    1  LIG1        0.1661
      3 C          -0.2900   -0.5528   -0.2221 C.ar    1  LIG1        0.1740
      4 C          -1.1340    0.3958    0.2724 C.ar    1  LIG1        0.0747
      5 S          -2.4897   -0.3439    1.0758 S.2     1  LIG1       -0.0885
      6 H          -2.4601   -2.8129    1.0155 H       1  LIG1        0.0731
      7 O          -0.0178   -2.9598   -0.3896 O.3     1  LIG1       -0.5029
      8 H           0.7737   -2.6137   -0.8253 H       1  LIG1        0.2923
      9 O           0.8525   -0.4029   -0.9343 O.3     1  LIG1       -0.5025
     10 H           1.3068    0.4210   -0.6785 H       1  LIG1        0.2923
     11 C          -0.9775    1.8399    0.1585 C.ar    1  LIG1        0.0753
     12 C           0.1875    2.5342    0.0876 C.ar    1  LIG1        0.1746
     13 C           0.0179    3.9476   -0.0732 C.ar    1  LIG1        0.1746
     14 C          -1.2928    4.3194   -0.1009 C.ar    1  LIG1        0.0753
     15 S          -2.3338    2.9295    0.0553 S.2     1  LIG1       -0.0794
     16 O           1.4368    1.9884    0.1601 O.3     1  LIG1       -0.5025
     17 H           2.0801    2.7101    0.0907 H       1  LIG1        0.2923
     18 O           1.1381    4.7008   -0.1903 O.3     1  LIG1       -0.5025
     19 H           0.9872    5.5880    0.1868 H       1  LIG1        0.2923
     20 C          -1.8105    5.6758   -0.2286 C.ar    1  LIG1        0.0747
     21 C          -1.2172    6.8178    0.2071 C.ar    1  LIG1        0.1740
     22 C          -1.9721    8.0027   -0.0811 C.ar    1  LIG1        0.1661
     23 C          -3.1355    7.7418   -0.7216 C.ar    1  LIG1        0.0215
     24 S          -3.3178    6.0434   -1.0134 S.2     1  LIG1       -0.0885
     25 H          -3.8910    8.4391   -1.0441 H       1  LIG1        0.0731
     26 O          -0.0282    6.8745    0.8779 O.3     1  LIG1       -0.5025
     27 H           0.1647    7.7969    1.0980 H       1  LIG1        0.2923
     28 O          -1.4281    9.1810    0.3370 O.3     1  LIG1       -0.5029
     29 H          -2.0269    9.9209    0.1924 H       1  LIG1        0.2923
@<TRIPOS>BOND
     1    25    23    1
     2    24    23   ar
     3    24    20   ar
     4     9    10    1
     5     9     3    1
     6     8     7    1
     7    23    22   ar
     8     7     2    1
     9    20    14    1
    10    20    21   ar
    11     3     2   ar
    12     3     4   ar
    13    18    13    1
    14    18    19    1
    15    14    13   ar
    16    14    15   ar
    17    22    21   ar
    18    22    28    1
    19    13    12   ar
    20     2     1   ar
    21    15    11   ar
    22    12    11   ar
    23    12    16    1
    24    17    16    1
    25    11     4    1
    26    29    28    1
    27    21    26    1
    28     4     5   ar
    29     1     6    1
    30     1     5   ar
    31    26    27    1
