@<TRIPOS>MOLECULE
mol_data/opt/m06hf/geoms/mol2/5ff5ff-5ff-5ff-.out
 38 41 0 0 0
SMALL
GASTEIGER

@<TRIPOS>ATOM
      1 C          -1.7044   -2.0898    0.6947 C.ar    1  LIG1        0.0215
      2 C          -0.6360   -1.9896   -0.1277 C.ar    1  LIG1        0.1661
      3 C          -0.2441   -0.6236   -0.3717 C.ar    1  LIG1        0.1740
      4 C          -1.0250    0.2793    0.2850 C.ar    1  LIG1        0.0747
      5 S          -2.2460   -0.5310    1.2260 S.2     1  LIG1       -0.0885
      6 H          -2.1887   -2.9906    1.0293 H       1  LIG1        0.0731
      7 O           0.0391   -3.0120   -0.7024 O.3     1  LIG1       -0.5029
      8 H           0.7507   -2.6241   -1.2311 H       1  LIG1        0.2923
      9 O           0.7888   -0.4141   -1.2231 O.3     1  LIG1       -0.5025
     10 H           1.2581    0.4086   -0.9906 H       1  LIG1        0.2923
     11 C          -0.9032    1.7306    0.2365 C.ar    1  LIG1        0.0753
     12 C           0.2321    2.4506    0.0451 C.ar    1  LIG1        0.1746
     13 C           0.0292    3.8682    0.0074 C.ar    1  LIG1        0.1746
     14 C          -1.2741    4.2171    0.2050 C.ar    1  LIG1        0.0753
     15 S          -2.2694    2.7986    0.4086 S.2     1  LIG1       -0.0794
     16 O           1.4840    1.9260   -0.0995 O.3     1  LIG1       -0.5025
     17 H           2.1047    2.6629   -0.2048 H       1  LIG1        0.2923
     18 O           1.1148    4.6411   -0.2302 O.3     1  LIG1       -0.5025
     19 H           0.9999    5.5232    0.1734 H       1  LIG1        0.2923
     20 C          -1.8240    5.5650    0.2364 C.ar    1  LIG1        0.0753
     21 C          -1.1760    6.7117    0.5711 C.ar    1  LIG1        0.1746
     22 C          -1.9880    7.8882    0.4876 C.ar    1  LIG1        0.1746
     23 C          -3.2642    7.6180    0.0943 C.ar    1  LIG1        0.0753
     24 S          -3.4678    5.9197   -0.2296 S.2     1  LIG1       -0.0794
     25 O           0.1201    6.7969    0.9929 O.3     1  LIG1       -0.5025
     26 H           0.3246    7.7336    1.1377 H       1  LIG1        0.2923
     27 O          -1.4210    9.0635    0.8497 O.3     1  LIG1       -0.5025
     28 H          -1.8344    9.8016    0.3633 H       1  LIG1        0.2923
     29 C          -4.3501    8.5795   -0.0430 C.ar    1  LIG1        0.0747
     30 C          -4.2378    9.8899   -0.3835 C.ar    1  LIG1        0.1740
     31 C          -5.4899   10.5890   -0.3922 C.ar    1  LIG1        0.1661
     32 C          -6.5368    9.7944   -0.0695 C.ar    1  LIG1        0.0215
     33 S          -6.0120    8.1826    0.2820 S.2     1  LIG1       -0.0885
     34 H          -7.5812   10.0552   -0.0158 H       1  LIG1        0.0731
     35 O          -3.0663   10.5169   -0.7026 O.3     1  LIG1       -0.5025
     36 H          -3.2573   11.4358   -0.9393 H       1  LIG1        0.2923
     37 O          -5.4418   11.9082   -0.7321 O.3     1  LIG1       -0.5029
     38 H          -6.3160   12.3114   -0.7202 H       1  LIG1        0.2923
@<TRIPOS>BOND
     1     8     7    1
     2     9    10    1
     3     9     3    1
     4    36    35    1
     5    37    38    1
     6    37    31    1
     7    35    30    1
     8     7     2    1
     9    31    30   ar
    10    31    32   ar
    11    30    29   ar
    12     3     2   ar
    13     3     4   ar
    14    18    13    1
    15    18    19    1
    16    24    23   ar
    17    24    20   ar
    18    17    16    1
    19     2     1   ar
    20    16    12    1
    21    32    34    1
    22    32    33   ar
    23    29    23    1
    24    29    33   ar
    25    13    12   ar
    26    13    14   ar
    27    12    11   ar
    28    23    22   ar
    29    14    20    1
    30    14    15   ar
    31    20    21   ar
    32    11     4    1
    33    11    15   ar
    34     4     5   ar
    35    28    27    1
    36    22    21   ar
    37    22    27    1
    38    21    25    1
    39     1     6    1
    40     1     5   ar
    41    25    26    1
