@<TRIPOS>MOLECULE
mol_data/opt/m06hf/geoms/mol2/5ff5ff-5ff-.out
 29 31 0 0 0
SMALL
GASTEIGER

@<TRIPOS>ATOM
      1 C          -2.0034   -1.9828   -0.0667 C.ar    1  LIG1        0.0215
      2 C          -0.6969   -1.8808    0.2671 C.ar    1  LIG1        0.1661
      3 C          -0.2209   -0.5198    0.2536 C.ar    1  LIG1        0.1740
      4 C          -1.1825    0.3774   -0.1020 C.ar    1  LIG1        0.0747
      5 S          -2.6869   -0.4341   -0.4395 S.2     1  LIG1       -0.0885
      6 H          -2.5925   -2.8812   -0.1297 H       1  LIG1        0.0731
      7 O           0.1325   -2.8974    0.5979 O.3     1  LIG1       -0.5029
      8 H           1.0021   -2.5133    0.7782 H       1  LIG1        0.2923
      9 O           1.0641   -0.3058    0.6248 O.3     1  LIG1       -0.5025
     10 H           1.4160    0.4906    0.1854 H       1  LIG1        0.2923
     11 C          -1.0356    1.8247   -0.1826 C.ar    1  LIG1        0.0753
     12 C           0.0953    2.5206   -0.4698 C.ar    1  LIG1        0.1746
     13 C          -0.0705    3.9430   -0.4419 C.ar    1  LIG1        0.1746
     14 C          -1.3443    4.3169   -0.1341 C.ar    1  LIG1        0.0753
     15 S          -2.3424    2.9216    0.1710 S.2     1  LIG1       -0.0794
     16 O           1.3020    1.9685   -0.7912 O.3     1  LIG1       -0.5025
     17 H           1.9289    2.6915   -0.9454 H       1  LIG1        0.2923
     18 O           1.0024    4.7013   -0.7712 O.3     1  LIG1       -0.5025
     19 H           0.9575    5.5645   -0.3182 H       1  LIG1        0.2923
     20 C          -1.8560    5.6795   -0.0665 C.ar    1  LIG1        0.0747
     21 C          -1.1582    6.7939    0.2740 C.ar    1  LIG1        0.1740
     22 C          -1.9343    7.9983    0.2129 C.ar    1  LIG1        0.1661
     23 C          -3.2161    7.7787   -0.1609 C.ar    1  LIG1        0.0215
     24 S          -3.4945    6.0986   -0.4745 S.2     1  LIG1       -0.0885
     25 H          -4.0114    8.4975   -0.2717 H       1  LIG1        0.0731
     26 O           0.1541    6.8101    0.6559 O.3     1  LIG1       -0.5025
     27 H           0.4050    7.7189    0.8743 H       1  LIG1        0.2923
     28 O          -1.2846    9.1487    0.5483 O.3     1  LIG1       -0.5029
     29 H          -1.8634    9.9164    0.4968 H       1  LIG1        0.2923
@<TRIPOS>BOND
     1    17    16    1
     2    16    12    1
     3    18    13    1
     4    18    19    1
     5    24    23   ar
     6    24    20   ar
     7    12    13   ar
     8    12    11   ar
     9    13    14   ar
    10     5     4   ar
    11     5     1   ar
    12    25    23    1
    13    11     4    1
    14    11    15   ar
    15    23    22   ar
    16    14    20    1
    17    14    15   ar
    18     6     1    1
    19     4     3   ar
    20     1     2   ar
    21    20    21   ar
    22    10     9    1
    23    22    21   ar
    24    22    28    1
    25     3     2   ar
    26     3     9    1
    27     2     7    1
    28    21    26    1
    29    29    28    1
    30     7     8    1
    31    26    27    1
