@<TRIPOS>MOLECULE
mol_data/opt/m06hf/geoms/mol2/5ff5ff5ff-5ff.out
 38 41 0 0 0
SMALL
GASTEIGER

@<TRIPOS>ATOM
      1 C          -1.6131   -2.0185    1.1386 C.ar    1  LIG1        0.0215
      2 C          -0.6624   -1.9846    0.1776 C.ar    1  LIG1        0.1661
      3 C          -0.2983   -0.6422   -0.2011 C.ar    1  LIG1        0.1740
      4 C          -0.9792    0.3104    0.4945 C.ar    1  LIG1        0.0747
      5 S          -2.0695   -0.4226    1.6375 S.2     1  LIG1       -0.0885
      6 H          -2.0549   -2.8905    1.5890 H       1  LIG1        0.0731
      7 O          -0.0827   -3.0519   -0.4192 O.3     1  LIG1       -0.5029
      8 H           0.5708   -2.7138   -1.0479 H       1  LIG1        0.2923
      9 O           0.6133   -0.4960   -1.1926 O.3     1  LIG1       -0.5025
     10 H           1.1132    0.3326   -1.0708 H       1  LIG1        0.2923
     11 C          -0.8654    1.7529    0.3237 C.ar    1  LIG1        0.0753
     12 C           0.2361    2.4467   -0.0625 C.ar    1  LIG1        0.1746
     13 C           0.0234    3.8571   -0.1949 C.ar    1  LIG1        0.1746
     14 C          -1.2500    4.2274    0.1188 C.ar    1  LIG1        0.0753
     15 S          -2.2055    2.8393    0.5716 S.2     1  LIG1       -0.0794
     16 O           1.4615    1.9019   -0.3203 O.3     1  LIG1       -0.5025
     17 H           2.0597    2.6208   -0.5752 H       1  LIG1        0.2923
     18 O           1.0670    4.6071   -0.6218 O.3     1  LIG1       -0.5025
     19 H           1.0083    5.5090   -0.2519 H       1  LIG1        0.2923
     20 C          -1.7916    5.5780    0.0774 C.ar    1  LIG1        0.0753
     21 C          -1.1101    6.7343    0.2840 C.ar    1  LIG1        0.1746
     22 C          -1.8993    7.9170    0.1125 C.ar    1  LIG1        0.1746
     23 C          -3.1949    7.6407   -0.2065 C.ar    1  LIG1        0.0753
     24 S          -3.4548    5.9207   -0.3142 S.2     1  LIG1       -0.0794
     25 O           0.2101    6.8231    0.6198 O.3     1  LIG1       -0.5025
     26 H           0.4303    7.7629    0.7105 H       1  LIG1        0.2923
     27 O          -1.2723    9.1083    0.2599 O.3     1  LIG1       -0.5025
     28 H          -1.8963    9.7795    0.5962 H       1  LIG1        0.2923
     29 C          -4.2556    8.6102   -0.4474 C.ar    1  LIG1        0.0747
     30 C          -4.3664    9.8482    0.1017 C.ar    1  LIG1        0.1740
     31 C          -5.5064   10.5824   -0.3645 C.ar    1  LIG1        0.1661
     32 C          -6.2526    9.8849   -1.2527 C.ar    1  LIG1        0.0215
     33 S          -5.5625    8.3263   -1.5586 S.2     1  LIG1       -0.0885
     34 H          -7.1615   10.1892   -1.7452 H       1  LIG1        0.0731
     35 O          -3.5067   10.3766    1.0228 O.3     1  LIG1       -0.5025
     36 H          -3.8205   11.2567    1.2761 H       1  LIG1        0.2923
     37 O          -5.6697   11.8334    0.1519 O.3     1  LIG1       -0.5029
     38 H          -6.4964   12.2337   -0.1368 H       1  LIG1        0.2923
@<TRIPOS>BOND
     1    34    32    1
     2    33    32   ar
     3    33    29   ar
     4    32    31   ar
     5     9    10    1
     6     9     3    1
     7     8     7    1
     8    18    19    1
     9    18    13    1
    10    17    16    1
    11    29    23    1
    12    29    30   ar
    13     7     2    1
    14    31    30   ar
    15    31    37    1
    16    16    12    1
    17    24    23   ar
    18    24    20   ar
    19    23    22   ar
    20     3     2   ar
    21     3     4   ar
    22    13    12   ar
    23    13    14   ar
    24    38    37    1
    25    12    11   ar
    26    20    14    1
    27    20    21   ar
    28    30    35    1
    29    22    27    1
    30    22    21   ar
    31    14    15   ar
    32     2     1   ar
    33    27    28    1
    34    21    25    1
    35    11     4    1
    36    11    15   ar
    37     4     5   ar
    38    25    26    1
    39    35    36    1
    40     1     6    1
    41     1     5   ar
