@<TRIPOS>MOLECULE
mol_data/opt/m06hf/geoms/mol2/5ff5ff5ff5ff.out
 38 41 0 0 0
SMALL
GASTEIGER

@<TRIPOS>ATOM
      1 C          -1.8717   -2.1117    0.1495 C.ar    1  LIG1        0.0215
      2 C          -0.5548   -1.9974   -0.1351 C.ar    1  LIG1        0.1661
      3 C          -0.1054   -0.6279   -0.1659 C.ar    1  LIG1        0.1740
      4 C          -1.0972    0.2646    0.1097 C.ar    1  LIG1        0.0747
      5 S          -2.5982   -0.5620    0.4228 S.2     1  LIG1       -0.0885
      6 H          -2.4468   -3.0179    0.2288 H       1  LIG1        0.0731
      7 O           0.3077   -3.0103   -0.3834 O.3     1  LIG1       -0.5029
      8 H           1.1759   -2.6152   -0.5468 H       1  LIG1        0.2923
      9 O           1.1908   -0.4047   -0.4915 O.3     1  LIG1       -0.5025
     10 H           1.5101    0.4132   -0.0665 H       1  LIG1        0.2923
     11 C          -0.9786    1.7166    0.1445 C.ar    1  LIG1        0.0753
     12 C           0.1248    2.4420    0.4592 C.ar    1  LIG1        0.1746
     13 C          -0.0661    3.8596    0.3853 C.ar    1  LIG1        0.1746
     14 C          -1.3323    4.1997    0.0138 C.ar    1  LIG1        0.0753
     15 S          -2.2894    2.7760   -0.2967 S.2     1  LIG1       -0.0794
     16 O           1.3273    1.9229    0.8457 O.3     1  LIG1       -0.5025
     17 H           1.9327    2.6620    1.0084 H       1  LIG1        0.2923
     18 O           0.9788    4.6478    0.7325 O.3     1  LIG1       -0.5025
     19 H           0.9297    5.5004    0.2591 H       1  LIG1        0.2923
     20 C          -1.8633    5.5485   -0.1220 C.ar    1  LIG1        0.0753
     21 C          -1.1727    6.6695   -0.4547 C.ar    1  LIG1        0.1746
     22 C          -1.9686    7.8600   -0.4819 C.ar    1  LIG1        0.1746
     23 C          -3.2729    7.6253   -0.1667 C.ar    1  LIG1        0.0753
     24 S          -3.5276    5.9446    0.2155 S.2     1  LIG1       -0.0794
     25 O           0.1558    6.7159   -0.7668 O.3     1  LIG1       -0.5025
     26 H           0.3860    7.6403   -0.9471 H       1  LIG1        0.2923
     27 O          -1.3562    9.0084   -0.8555 O.3     1  LIG1       -0.5025
     28 H          -1.7932    9.7755   -0.4389 H       1  LIG1        0.2923
     29 C          -4.3499    8.6068   -0.1359 C.ar    1  LIG1        0.0747
     30 C          -4.2374    9.9301    0.1501 C.ar    1  LIG1        0.1740
     31 C          -5.4807   10.6407    0.0752 C.ar    1  LIG1        0.1661
     32 C          -6.5229    9.8423   -0.2523 C.ar    1  LIG1        0.0215
     33 S          -6.0024    8.2110   -0.5078 S.2     1  LIG1       -0.0885
     34 H          -7.5605   10.1109   -0.3643 H       1  LIG1        0.0731
     35 O          -3.0757   10.5608    0.4974 O.3     1  LIG1       -0.5025
     36 H          -3.2663   11.4938    0.6713 H       1  LIG1        0.2923
     37 O          -5.4301   11.9740    0.3545 O.3     1  LIG1       -0.5029
     38 H          -6.3049   12.3757    0.3360 H       1  LIG1        0.2923
@<TRIPOS>BOND
     1    26    25    1
     2    27    22    1
     3    27    28    1
     4    25    21    1
     5     8     7    1
     6    33    32   ar
     7    33    29   ar
     8     9     3    1
     9     9    10    1
    10    22    21   ar
    11    22    23   ar
    12    21    20   ar
    13     7     2    1
    14    34    32    1
    15    15    14   ar
    16    15    11   ar
    17    32    31   ar
    18    23    29    1
    19    23    24   ar
    20     3     2   ar
    21     3     4   ar
    22    29    30   ar
    23     2     1   ar
    24    20    14    1
    25    20    24   ar
    26    14    13   ar
    27    31    30   ar
    28    31    37    1
    29     4    11    1
    30     4     5   ar
    31    11    12   ar
    32     1     6    1
    33     1     5   ar
    34    30    35    1
    35    19    18    1
    36    38    37    1
    37    13    12   ar
    38    13    18    1
    39    12    16    1
    40    35    36    1
    41    16    17    1
