@<TRIPOS>MOLECULE
mol_data/opt/m06hf/geoms/mol2/5ff5ff-5ff5ff-.out
 38 41 0 0 0
SMALL
GASTEIGER

@<TRIPOS>ATOM
      1 C          -2.2065   -1.9169    0.0006 C.ar    1  LIG1        0.0215
      2 C          -0.8581   -1.9954   -0.0006 C.ar    1  LIG1        0.1661
      3 C          -0.2149   -0.7027   -0.0005 C.ar    1  LIG1        0.1740
      4 C          -1.1018    0.3351    0.0008 C.ar    1  LIG1        0.0747
      5 S          -2.7403   -0.2699    0.0019 S.2     1  LIG1       -0.0885
      6 H          -2.9097   -2.7312    0.0007 H       1  LIG1        0.0731
      7 O          -0.1162   -3.1270   -0.0018 O.3     1  LIG1       -0.5029
      8 H           0.8150   -2.8632   -0.0025 H       1  LIG1        0.2923
      9 O           1.1360   -0.7246   -0.0017 O.3     1  LIG1       -0.5025
     10 H           1.5112    0.1759   -0.0013 H       1  LIG1        0.2923
     11 C          -0.8465    1.7746    0.0014 C.ar    1  LIG1        0.0753
     12 C           0.3341    2.4461    0.0014 C.ar    1  LIG1        0.1746
     13 C           0.2097    3.8742    0.0020 C.ar    1  LIG1        0.1746
     14 C          -1.0891    4.2942    0.0026 C.ar    1  LIG1        0.0753
     15 S          -2.1637    2.9162    0.0022 S.2     1  LIG1       -0.0794
     16 O           1.5802    1.8876    0.0008 O.3     1  LIG1       -0.5025
     17 H           2.2352    2.6014    0.0008 H       1  LIG1        0.2923
     18 O           1.3761    4.5556    0.0020 O.3     1  LIG1       -0.5025
     19 H           1.2285    5.5219    0.0023 H       1  LIG1        0.2923
     20 C          -1.6227    5.6526    0.0034 C.ar    1  LIG1        0.0753
     21 C          -0.9588    6.8377    0.0036 C.ar    1  LIG1        0.1746
     22 C          -1.8029    7.9960    0.0045 C.ar    1  LIG1        0.1746
     23 C          -3.1311    7.6838    0.0049 C.ar    1  LIG1        0.0753
     24 S          -3.3410    5.9502    0.0043 S.2     1  LIG1       -0.0794
     25 O           0.3967    7.0023    0.0031 O.3     1  LIG1       -0.5025
     26 H           0.5895    7.9524    0.0032 H       1  LIG1        0.2923
     27 O          -1.1548    9.1817    0.0048 O.3     1  LIG1       -0.5025
     28 H          -1.7793    9.9326    0.0050 H       1  LIG1        0.2923
     29 C          -4.2972    8.5659    0.0059 C.ar    1  LIG1        0.0747
     30 C          -4.3465    9.9250    0.0060 C.ar    1  LIG1        0.1740
     31 C          -5.6783   10.4557    0.0072 C.ar    1  LIG1        0.1661
     32 C          -6.6307    9.4955    0.0080 C.ar    1  LIG1        0.0215
     33 S          -5.9151    7.9206    0.0074 S.2     1  LIG1       -0.0885
     34 H          -7.7017    9.6121    0.0090 H       1  LIG1        0.0731
     35 O          -3.2690   10.7661    0.0049 O.3     1  LIG1       -0.5025
     36 H          -3.5774   11.6834    0.0052 H       1  LIG1        0.2923
     37 O          -5.7771   11.8152    0.0073 O.3     1  LIG1       -0.5029
     38 H          -6.6934   12.1113    0.0075 H       1  LIG1        0.2923
@<TRIPOS>BOND
     1     8     7    1
     2     7     2    1
     3     9    10    1
     4     9     3    1
     5     2     3   ar
     6     2     1   ar
     7     3     4   ar
     8     1     6    1
     9     1     5   ar
    10    16    17    1
    11    16    12    1
    12     4    11    1
    13     4     5   ar
    14    12    11   ar
    15    12    13   ar
    16    11    15   ar
    17    18    13    1
    18    18    19    1
    19    13    14   ar
    20    15    14   ar
    21    14    20    1
    22    25    26    1
    23    25    21    1
    24    20    21   ar
    25    20    24   ar
    26    21    22   ar
    27    24    23   ar
    28    22    27    1
    29    22    23   ar
    30    27    28    1
    31    35    36    1
    32    35    30    1
    33    23    29    1
    34    29    30   ar
    35    29    33   ar
    36    30    31   ar
    37    31    37    1
    38    31    32   ar
    39    37    38    1
    40    33    32   ar
    41    32    34    1
