@<TRIPOS>MOLECULE
mol_data/opt/m06hf/geoms/mol2/5ff5ff-.out
 20 21 0 0 0
SMALL
GASTEIGER

@<TRIPOS>ATOM
      1 C          -2.0530   -1.8408   -0.3382 C.ar    1  LIG1        0.0215
      2 C          -0.7537   -1.7973    0.0344 C.ar    1  LIG1        0.1661
      3 C          -0.2628   -0.4509    0.1941 C.ar    1  LIG1        0.1740
      4 C          -1.2060    0.4948   -0.0702 C.ar    1  LIG1        0.0747
      5 S          -2.7108   -0.2500   -0.5375 S.2     1  LIG1       -0.0885
      6 H          -2.6503   -2.7173   -0.5200 H       1  LIG1        0.0731
      7 O           0.0537   -2.8583    0.2641 O.3     1  LIG1       -0.5029
      8 H           0.9261   -2.5143    0.5025 H       1  LIG1        0.2923
      9 O           1.0186   -0.2976    0.6082 O.3     1  LIG1       -0.5025
     10 H           1.3904    0.5302    0.2528 H       1  LIG1        0.2923
     11 C          -1.0381    1.9406    0.0174 C.ar    1  LIG1        0.0747
     12 C           0.1018    2.6451   -0.2013 C.ar    1  LIG1        0.1740
     13 C          -0.0480    4.0579   -0.0028 C.ar    1  LIG1        0.1661
     14 C          -1.3059    4.4092    0.3509 C.ar    1  LIG1        0.0215
     15 S          -2.3272    3.0164    0.4804 S.2     1  LIG1       -0.0885
     16 H          -1.6925    5.3959    0.5456 H       1  LIG1        0.0731
     17 O           1.2958    2.1028   -0.5872 O.3     1  LIG1       -0.5025
     18 H           1.9432    2.8148   -0.6877 H       1  LIG1        0.2923
     19 O           1.0645    4.8177   -0.2142 O.3     1  LIG1       -0.5029
     20 H           0.8877    5.7540   -0.0768 H       1  LIG1        0.2923
@<TRIPOS>BOND
     1    18    17    1
     2    17    12    1
     3     5     1   ar
     4     5     4   ar
     5     6     1    1
     6     1     2   ar
     7    19    20    1
     8    19    13    1
     9    12    13   ar
    10    12    11   ar
    11     4    11    1
    12     4     3   ar
    13    13    14   ar
    14    11    15   ar
    15     2     3   ar
    16     2     7    1
    17     3     9    1
    18    10     9    1
    19     7     8    1
    20    14    15   ar
    21    14    16    1
