@<TRIPOS>MOLECULE
mol_data/opt/m06hf/geoms/mol2/5ff5ff-5ff-5ff.out
 38 41 0 0 0
SMALL
GASTEIGER

@<TRIPOS>ATOM
      1 C          -1.6171   -2.0271    1.1063 C.ar    1  LIG1        0.0215
      2 C          -0.6672   -1.9867    0.1447 C.ar    1  LIG1        0.1661
      3 C          -0.3026   -0.6417   -0.2243 C.ar    1  LIG1        0.1740
      4 C          -0.9822    0.3061    0.4790 C.ar    1  LIG1        0.0747
      5 S          -2.0720   -0.4347    1.6175 S.2     1  LIG1       -0.0885
      6 H          -2.0590   -2.9022    1.5506 H       1  LIG1        0.0731
      7 O          -0.0887   -3.0499   -0.4605 O.3     1  LIG1       -0.5029
      8 H           0.5645   -2.7075   -1.0872 H       1  LIG1        0.2923
      9 O           0.6082   -0.4887   -1.2154 O.3     1  LIG1       -0.5025
     10 H           1.1089    0.3385   -1.0878 H       1  LIG1        0.2923
     11 C          -0.8676    1.7497    0.3189 C.ar    1  LIG1        0.0753
     12 C           0.2342    2.4456   -0.0629 C.ar    1  LIG1        0.1746
     13 C           0.0223    3.8571   -0.1846 C.ar    1  LIG1        0.1746
     14 C          -1.2505    4.2260    0.1329 C.ar    1  LIG1        0.0753
     15 S          -2.2068    2.8352    0.5760 S.2     1  LIG1       -0.0794
     16 O           1.4589    1.9019   -0.3257 O.3     1  LIG1       -0.5025
     17 H           2.0574    2.6223   -0.5757 H       1  LIG1        0.2923
     18 O           1.0661    4.6096   -0.6067 O.3     1  LIG1       -0.5025
     19 H           1.0084    5.5087   -0.2298 H       1  LIG1        0.2923
     20 C          -1.7912    5.5773    0.1021 C.ar    1  LIG1        0.0753
     21 C          -1.1087    6.7315    0.3170 C.ar    1  LIG1        0.1746
     22 C          -1.8972    7.9160    0.1551 C.ar    1  LIG1        0.1746
     23 C          -3.1932    7.6430   -0.1649 C.ar    1  LIG1        0.0753
     24 S          -3.4545    5.9241   -0.2855 S.2     1  LIG1       -0.0794
     25 O           0.2118    6.8168    0.6525 O.3     1  LIG1       -0.5025
     26 H           0.4328    7.7557    0.7500 H       1  LIG1        0.2923
     27 O          -1.2693    9.1057    0.3112 O.3     1  LIG1       -0.5025
     28 H          -1.8925    9.7748    0.6531 H       1  LIG1        0.2923
     29 C          -4.2535    8.6151   -0.3976 C.ar    1  LIG1        0.0747
     30 C          -4.3630    9.8490    0.1609 C.ar    1  LIG1        0.1740
     31 C          -5.5029   10.5875   -0.2988 C.ar    1  LIG1        0.1661
     32 C          -6.2503    9.8972   -1.1916 C.ar    1  LIG1        0.0215
     33 S          -5.5614    8.3405   -1.5099 S.2     1  LIG1       -0.0885
     34 H          -7.1593   10.2058   -1.6811 H       1  LIG1        0.0731
     35 O          -3.5022   10.3697    1.0853 O.3     1  LIG1       -0.5025
     36 H          -3.8151   11.2482    1.3455 H       1  LIG1        0.2923
     37 O          -5.6649   11.8346    0.2272 O.3     1  LIG1       -0.5029
     38 H          -6.4917   12.2375   -0.0574 H       1  LIG1        0.2923
@<TRIPOS>BOND
     1    34    32    1
     2    33    32   ar
     3    33    29   ar
     4     9    10    1
     5     9     3    1
     6    32    31   ar
     7     8     7    1
     8    18    19    1
     9    18    13    1
    10    17    16    1
    11     7     2    1
    12    29    23    1
    13    29    30   ar
    14    16    12    1
    15    31    30   ar
    16    31    37    1
    17    24    23   ar
    18    24    20   ar
    19     3     2   ar
    20     3     4   ar
    21    13    12   ar
    22    13    14   ar
    23    23    22   ar
    24    12    11   ar
    25    38    37    1
    26    20    14    1
    27    20    21   ar
    28    14    15   ar
    29     2     1   ar
    30    22    27    1
    31    22    21   ar
    32    30    35    1
    33    27    28    1
    34    21    25    1
    35    11     4    1
    36    11    15   ar
    37     4     5   ar
    38    25    26    1
    39    35    36    1
    40     1     6    1
    41     1     5   ar
