@<TRIPOS>MOLECULE
mol_data/opt/m06hf/geoms/mol2/5fg.out
 11 11 0 0 0
SMALL
GASTEIGER

@<TRIPOS>ATOM
      1 C          -2.1262   -1.7369    0.0001 C.ar    1  LIG1        0.0183
      2 C          -0.7702   -1.6911   -0.0001 C.ar    1  LIG1        0.1369
      3 C          -0.2617   -0.3393    0.0001 C.ar    1  LIG1        0.0533
      4 C          -1.2612    0.5800    0.0005 C.ar    1  LIG1       -0.0075
      5 S          -2.8138   -0.1592    0.0004 S.2     1  LIG1       -0.1002
      6 H          -2.7362   -2.6240   -0.0001 H       1  LIG1        0.0730
      7 H          -1.1666    1.6538    0.0007 H       1  LIG1        0.0705
      8 O          -0.0006   -2.8108   -0.0005 O.3     1  LIG1       -0.5051
      9 H           0.9390   -2.5995   -0.0017 H       1  LIG1        0.2922
     10 S           1.4893   -0.0511    0.0002 S.3     1  LIG1       -0.1386
     11 H           1.4174    1.2823   -0.0013 H       1  LIG1        0.1072
@<TRIPOS>BOND
     1     9     8    1
     2    11    10    1
     3     8     2    1
     4     2     1   ar
     5     2     3   ar
     6     6     1    1
     7     1     5   ar
     8     3    10    1
     9     3     4   ar
    10     5     4   ar
    11     4     7    1
