@<TRIPOS>MOLECULE
mol_data/opt/m06hf/geoms/mol2/5fg5fg.out
 20 21 0 0 0
SMALL
GASTEIGER

@<TRIPOS>ATOM
      1 C          -1.9945   -1.7015    0.6546 C.ar    1  LIG1        0.0189
      2 C          -0.7224   -1.7219    0.1810 C.ar    1  LIG1        0.1376
      3 C          -0.2452   -0.4136   -0.1910 C.ar    1  LIG1        0.0617
      4 C          -1.1666    0.5647    0.0472 C.ar    1  LIG1        0.0462
      5 S          -2.6228   -0.0961    0.6953 S.2     1  LIG1       -0.0912
      6 H          -2.5786   -2.5447    0.9805 H       1  LIG1        0.0731
      7 O           0.0178   -2.8456    0.0406 O.3     1  LIG1       -0.5051
      8 H           0.9317   -2.5890   -0.1481 H       1  LIG1        0.2922
      9 S           1.3753   -0.1659   -0.8702 S.3     1  LIG1       -0.1380
     10 H           1.0649   -0.5648   -2.1109 H       1  LIG1        0.1072
     11 C          -1.0026    2.0032   -0.1635 C.ar    1  LIG1        0.0695
     12 C           0.0154    2.7779    0.3071 C.ar    1  LIG1        0.1452
     13 C          -0.1038    4.1563   -0.0949 C.ar    1  LIG1        0.0539
     14 C          -1.2062    4.3791   -0.8586 C.ar    1  LIG1       -0.0069
     15 S          -2.1185    2.9473   -1.1001 S.2     1  LIG1       -0.0912
     16 H          -1.5162    5.3168   -1.2906 H       1  LIG1        0.0706
     17 O           1.0115    2.3102    1.0843 O.3     1  LIG1       -0.5045
     18 H           1.6904    2.9950    1.1686 H       1  LIG1        0.2922
     19 S           1.1303    5.3623    0.3216 S.3     1  LIG1       -0.1386
     20 H           0.5984    5.7578    1.4848 H       1  LIG1        0.1072
@<TRIPOS>BOND
     1    10     9    1
     2    16    14    1
     3    15    14   ar
     4    15    11   ar
     5     9     3    1
     6    14    13   ar
     7     3     4   ar
     8     3     2   ar
     9    11     4    1
    10    11    12   ar
    11     8     7    1
    12    13    12   ar
    13    13    19    1
    14     7     2    1
    15     4     5   ar
    16     2     1   ar
    17    12    17    1
    18    19    20    1
    19     1     5   ar
    20     1     6    1
    21    17    18    1
