@<TRIPOS>MOLECULE
mol_data/opt/m06hf/geoms/mol2/5fg5fg-5fg-5fg-.out
 38 41 0 0 0
SMALL
GASTEIGER

@<TRIPOS>ATOM
      1 C          -1.1801   -1.9190    1.3774 C.ar    1  LIG1        0.0189
      2 C          -0.7319   -1.9149    0.0957 C.ar    1  LIG1        0.1376
      3 C          -0.5522   -0.5839   -0.4298 C.ar    1  LIG1        0.0617
      4 C          -0.8546    0.3806    0.4887 C.ar    1  LIG1        0.0462
      5 S          -1.3587   -0.3170    1.9868 S.2     1  LIG1       -0.0912
      6 H          -1.3979   -2.7812    1.9835 H       1  LIG1        0.0731
      7 O          -0.4943   -3.0344   -0.6255 O.3     1  LIG1       -0.5051
      8 H          -0.0995   -2.7785   -1.4710 H       1  LIG1        0.2922
      9 S          -0.0813   -0.3305   -2.1190 S.3     1  LIG1       -0.1380
     10 H           1.0720    0.2959   -1.8535 H       1  LIG1        0.1072
     11 C          -0.7768    1.8292    0.3119 C.ar    1  LIG1        0.0701
     12 C           0.2793    2.5475   -0.1672 C.ar    1  LIG1        0.1458
     13 C           0.0231    3.9615   -0.2328 C.ar    1  LIG1        0.0623
     14 C          -1.2180    4.2846    0.2370 C.ar    1  LIG1        0.0468
     15 S          -2.0918    2.8767    0.7364 S.2     1  LIG1       -0.0822
     16 O           1.4601    1.9947   -0.5334 O.3     1  LIG1       -0.5045
     17 H           2.0942    2.7077   -0.7052 H       1  LIG1        0.2922
     18 S           1.2247    5.0605   -0.9309 S.3     1  LIG1       -0.1380
     19 H           1.3862    5.8114    0.1661 H       1  LIG1        0.1072
     20 C          -1.8046    5.6178    0.3570 C.ar    1  LIG1        0.0702
     21 C          -1.2439    6.7175    0.9400 C.ar    1  LIG1        0.1458
     22 C          -2.1071    7.8677    0.9304 C.ar    1  LIG1        0.0623
     23 C          -3.3050    7.6098    0.3274 C.ar    1  LIG1        0.0468
     24 S          -3.3887    5.9816   -0.2463 S.2     1  LIG1       -0.0822
     25 O          -0.0186    6.7226    1.5146 O.3     1  LIG1       -0.5045
     26 H           0.1607    7.6159    1.8466 H       1  LIG1        0.2922
     27 S          -1.6260    9.3700    1.7352 S.3     1  LIG1       -0.1380
     28 H          -1.6149   10.1258    0.6270 H       1  LIG1        0.1072
     29 C          -4.4026    8.5493    0.1071 C.ar    1  LIG1        0.0696
     30 C          -4.3204    9.7824   -0.4718 C.ar    1  LIG1        0.1452
     31 C          -5.5961   10.4416   -0.5667 C.ar    1  LIG1        0.0539
     32 C          -6.6032    9.6900   -0.0460 C.ar    1  LIG1       -0.0069
     33 S          -6.0396    8.1857    0.5510 S.2     1  LIG1       -0.0912
     34 H          -7.6464    9.9566    0.0157 H       1  LIG1        0.0706
     35 O          -3.1690   10.3191   -0.9362 O.3     1  LIG1       -0.5045
     36 H          -3.3588   11.1996   -1.2941 H       1  LIG1        0.2922
     37 S          -5.7570   12.0640   -1.2725 S.3     1  LIG1       -0.1386
     38 H          -6.0494   11.6679   -2.5164 H       1  LIG1        0.1072
@<TRIPOS>BOND
     1    38    37    1
     2     9    10    1
     3     9     3    1
     4     8     7    1
     5    36    35    1
     6    37    31    1
     7    35    30    1
     8    18    13    1
     9    18    19    1
    10    17    16    1
    11     7     2    1
    12    31    30   ar
    13    31    32   ar
    14    16    12    1
    15    30    29   ar
    16     3     2   ar
    17     3     4   ar
    18    24    23   ar
    19    24    20   ar
    20    13    12   ar
    21    13    14   ar
    22    12    11   ar
    23    32    34    1
    24    32    33   ar
    25     2     1   ar
    26    29    23    1
    27    29    33   ar
    28    14    20    1
    29    14    15   ar
    30    11     4    1
    31    11    15   ar
    32    23    22   ar
    33    20    21   ar
    34     4     5   ar
    35    28    27    1
    36    22    21   ar
    37    22    27    1
    38    21    25    1
    39     1     6    1
    40     1     5   ar
    41    25    26    1
