@<TRIPOS>MOLECULE
mol_data/opt/m06hf/geoms/mol2/5fg5fg5fg5fg.out
 38 41 0 0 0
SMALL
GASTEIGER

@<TRIPOS>ATOM
      1 C          -1.8372   -2.0585    0.2315 C.ar    1  LIG1        0.0189
      2 C          -0.5669   -1.9398   -0.2318 C.ar    1  LIG1        0.1376
      3 C          -0.1329   -0.5681   -0.3319 C.ar    1  LIG1        0.0617
      4 C          -1.0914    0.3103    0.0836 C.ar    1  LIG1        0.0462
      5 S          -2.5230   -0.5175    0.5904 S.2     1  LIG1       -0.0912
      6 H          -2.3873   -2.9709    0.3851 H       1  LIG1        0.0731
      7 O           0.2096   -2.9906   -0.5838 O.3     1  LIG1       -0.5051
      8 H           1.1098   -2.6727   -0.7427 H       1  LIG1        0.2922
      9 S           1.4561   -0.1743   -1.0096 S.3     1  LIG1       -0.1380
     10 H           1.8947    0.5147    0.0514 H       1  LIG1        0.1072
     11 C          -0.9907    1.7671    0.1643 C.ar    1  LIG1        0.0701
     12 C          -0.0038    2.4940    0.7640 C.ar    1  LIG1        0.1458
     13 C          -0.2282    3.9132    0.7109 C.ar    1  LIG1        0.0623
     14 C          -1.3823    4.2296    0.0523 C.ar    1  LIG1        0.0468
     15 S          -2.1944    2.8150   -0.5169 S.2     1  LIG1       -0.0822
     16 O           1.0627    1.9425    1.3913 O.3     1  LIG1       -0.5045
     17 H           1.6307    2.6585    1.7147 H       1  LIG1        0.2922
     18 S           0.8603    5.0307    1.5485 S.3     1  LIG1       -0.1380
     19 H           1.2554    5.6964    0.4554 H       1  LIG1        0.1072
     20 C          -1.9083    5.5680   -0.2065 C.ar    1  LIG1        0.0702
     21 C          -1.2352    6.6237   -0.7498 C.ar    1  LIG1        0.1458
     22 C          -2.0475    7.8017   -0.8902 C.ar    1  LIG1        0.0623
     23 C          -3.3205    7.6100   -0.4328 C.ar    1  LIG1        0.0468
     24 S          -3.5410    6.0102    0.1782 S.2     1  LIG1       -0.0822
     25 O           0.0547    6.5646   -1.1532 O.3     1  LIG1       -0.5045
     26 H           0.3014    7.4274   -1.5205 H       1  LIG1        0.2922
     27 S          -1.4076    9.2573   -1.6728 S.3     1  LIG1       -0.1380
     28 H          -1.4460   10.0344   -0.5808 H       1  LIG1        0.1072
     29 C          -4.3936    8.6014   -0.3803 C.ar    1  LIG1        0.0696
     30 C          -4.3174    9.8565    0.1500 C.ar    1  LIG1        0.1452
     31 C          -5.5578   10.5800    0.0556 C.ar    1  LIG1        0.0539
     32 C          -6.5340    9.8494   -0.5470 C.ar    1  LIG1       -0.0069
     33 S          -5.9842    8.2920   -1.0004 S.2     1  LIG1       -0.0912
     34 H          -7.5459   10.1620   -0.7501 H       1  LIG1        0.0706
     35 O          -3.2081   10.3637    0.7339 O.3     1  LIG1       -0.5045
     36 H          -3.3991   11.2697    1.0204 H       1  LIG1        0.2922
     37 S          -5.7038   12.2531    0.6311 S.3     1  LIG1       -0.1386
     38 H          -6.1329   11.9704    1.8695 H       1  LIG1        0.1072
@<TRIPOS>BOND
     1    27    22    1
     2    27    28    1
     3    26    25    1
     4    25    21    1
     5     9     3    1
     6     9    10    1
     7    33    32   ar
     8    33    29   ar
     9    22    21   ar
    10    22    23   ar
    11    34    32    1
    12    21    20   ar
    13     8     7    1
    14     7     2    1
    15    32    31   ar
    16    15    14   ar
    17    15    11   ar
    18    23    29    1
    19    23    24   ar
    20    29    30   ar
    21     3     2   ar
    22     3     4   ar
    23     2     1   ar
    24    20    14    1
    25    20    24   ar
    26    14    13   ar
    27    31    30   ar
    28    31    37    1
    29     4    11    1
    30     4     5   ar
    31    30    35    1
    32    11    12   ar
    33     1     6    1
    34     1     5   ar
    35    19    18    1
    36    37    38    1
    37    13    12   ar
    38    13    18    1
    39    35    36    1
    40    12    16    1
    41    16    17    1
