@<TRIPOS>MOLECULE
mol_data/opt/m06hf/geoms/mol2/5fg5fg-5fg5fg.out
 38 41 0 0 0
SMALL
GASTEIGER

@<TRIPOS>ATOM
      1 C          -1.3051   -1.6745    1.8897 C.ar    1  LIG1        0.0189
      2 C          -0.8712   -1.8521    0.6156 C.ar    1  LIG1        0.1376
      3 C          -0.6654   -0.6072   -0.0832 C.ar    1  LIG1        0.0617
      4 C          -0.9329    0.4783    0.7005 C.ar    1  LIG1        0.0462
      5 S          -1.4361   -0.0012    2.2836 S.2     1  LIG1       -0.0912
      6 H          -1.5383   -2.4429    2.6067 H       1  LIG1        0.0731
      7 O          -0.6647   -3.0623    0.0480 O.3     1  LIG1       -0.5051
      8 H          -0.2904   -2.9301   -0.8348 H       1  LIG1        0.2922
      9 S          -0.2038   -0.5909   -1.7934 S.3     1  LIG1       -0.1380
     10 H           0.9709    0.0283   -1.6194 H       1  LIG1        0.1072
     11 C          -0.7965    1.8868    0.3350 C.ar    1  LIG1        0.0701
     12 C           0.3015    2.4877   -0.2073 C.ar    1  LIG1        0.1458
     13 C           0.1190    3.8930   -0.4521 C.ar    1  LIG1        0.0623
     14 C          -1.1135    4.3303   -0.0580 C.ar    1  LIG1        0.0468
     15 S          -2.0663    3.0412    0.5917 S.2     1  LIG1       -0.0822
     16 O           1.4565    1.8359   -0.4786 O.3     1  LIG1       -0.5045
     17 H           2.1275    2.4910   -0.7253 H       1  LIG1        0.2922
     18 S           1.3848    4.8433   -1.2467 S.3     1  LIG1       -0.1380
     19 H           1.5944    5.6873   -0.2282 H       1  LIG1        0.1072
     20 C          -1.6235    5.6986   -0.1197 C.ar    1  LIG1        0.0702
     21 C          -1.0123    6.8195    0.3615 C.ar    1  LIG1        0.1458
     22 C          -1.7709    8.0204    0.1390 C.ar    1  LIG1        0.0623
     23 C          -2.9593    7.7705   -0.4854 C.ar    1  LIG1        0.0468
     24 S          -3.1611    6.0874   -0.8199 S.2     1  LIG1       -0.0822
     25 O           0.1849    6.8077    0.9934 O.3     1  LIG1       -0.5045
     26 H           0.3303    7.6771    1.3973 H       1  LIG1        0.2922
     27 S          -1.1114    9.5966    0.6028 S.3     1  LIG1       -0.1380
     28 H          -2.1113    9.9302    1.4306 H       1  LIG1        0.1072
     29 C          -3.9964    8.7437   -0.8272 C.ar    1  LIG1        0.0696
     30 C          -4.5755    9.6501    0.0123 C.ar    1  LIG1        0.1452
     31 C          -5.5833   10.4489   -0.6330 C.ar    1  LIG1        0.0539
     32 C          -5.7297   10.1279   -1.9462 C.ar    1  LIG1       -0.0069
     33 S          -4.6744    8.8639   -2.4210 S.2     1  LIG1       -0.0912
     34 H          -6.4067   10.5812   -2.6527 H       1  LIG1        0.0706
     35 O          -4.2599    9.7699    1.3229 O.3     1  LIG1       -0.5045
     36 H          -4.8056   10.4716    1.7098 H       1  LIG1        0.2922
     37 S          -6.4709   11.7113    0.2463 S.3     1  LIG1       -0.1386
     38 H          -7.5244   10.9565    0.5845 H       1  LIG1        0.1072
@<TRIPOS>BOND
     1    34    32    1
     2    33    32   ar
     3    33    29   ar
     4    32    31   ar
     5     9    10    1
     6     9     3    1
     7    18    13    1
     8    18    19    1
     9     8     7    1
    10    29    23    1
    11    29    30   ar
    12    24    23   ar
    13    24    20   ar
    14    17    16    1
    15    31    30   ar
    16    31    37    1
    17    23    22   ar
    18    16    12    1
    19    13    12   ar
    20    13    14   ar
    21    12    11   ar
    22    20    14    1
    23    20    21   ar
    24     3     2   ar
    25     3     4   ar
    26    14    15   ar
    27    30    35    1
    28     7     2    1
    29    22    21   ar
    30    22    27    1
    31    37    38    1
    32    11    15   ar
    33    11     4    1
    34    21    25    1
    35    27    28    1
    36     2     1   ar
    37     4     5   ar
    38    25    26    1
    39    35    36    1
    40     1     5   ar
    41     1     6    1
