@<TRIPOS>MOLECULE
mol_data/opt/m06hf/geoms/mol2/5fg5fg5fg.out
 29 31 0 0 0
SMALL
GASTEIGER

@<TRIPOS>ATOM
      1 C          -1.9233   -1.9231    0.3632 C.ar    1  LIG1        0.0189
      2 C          -0.8123   -1.7953   -0.4064 C.ar    1  LIG1        0.1376
      3 C          -0.3693   -0.4279   -0.5267 C.ar    1  LIG1        0.0617
      4 C          -1.1537    0.4357    0.1822 C.ar    1  LIG1        0.0462
      5 S          -2.4338   -0.4006    0.9909 S.2     1  LIG1       -0.0912
      6 H          -2.4473   -2.8340    0.5961 H       1  LIG1        0.0731
      7 O          -0.1885   -2.8312   -1.0128 O.3     1  LIG1       -0.5051
      8 H           0.6358   -2.5089   -1.4049 H       1  LIG1        0.2922
      9 S           1.0012   -0.0117   -1.5702 S.3     1  LIG1       -0.1380
     10 H           1.7554    0.5379   -0.6092 H       1  LIG1        0.1072
     11 C          -0.9846    1.8815    0.3209 C.ar    1  LIG1        0.0701
     12 C           0.1483    2.5476    0.6879 C.ar    1  LIG1        0.1458
     13 C          -0.0308    3.9720    0.7698 C.ar    1  LIG1        0.0623
     14 C          -1.3022    4.3530    0.4480 C.ar    1  LIG1        0.0468
     15 S          -2.2834    2.9941    0.0297 S.2     1  LIG1       -0.0822
     16 O           1.3158    1.9327    0.9893 O.3     1  LIG1       -0.5045
     17 H           1.9672    2.6089    1.2320 H       1  LIG1        0.2922
     18 S           1.2761    5.0168    1.3521 S.3     1  LIG1       -0.1380
     19 H           1.4676    5.6699    0.1980 H       1  LIG1        0.1072
     20 C          -1.8296    5.7152    0.3897 C.ar    1  LIG1        0.0696
     21 C          -1.2871    6.7768   -0.2746 C.ar    1  LIG1        0.1452
     22 C          -2.0816    7.9716   -0.1613 C.ar    1  LIG1        0.0539
     23 C          -3.1949    7.7798    0.5960 C.ar    1  LIG1       -0.0069
     24 S          -3.3095    6.1697    1.1716 S.2     1  LIG1       -0.0912
     25 H          -3.9454    8.5138    0.8423 H       1  LIG1        0.0706
     26 O          -0.1450    6.7115   -0.9958 O.3     1  LIG1       -0.5045
     27 H           0.0596    7.5983   -1.3288 H       1  LIG1        0.2922
     28 S          -1.5870    9.4999   -0.9178 S.3     1  LIG1       -0.1386
     29 H          -2.1869    9.2970   -2.0976 H       1  LIG1        0.1072
@<TRIPOS>BOND
     1    29    28    1
     2     9    10    1
     3     9     3    1
     4     8     7    1
     5    27    26    1
     6     7     2    1
     7    26    21    1
     8    28    22    1
     9     3     2   ar
    10     3     4   ar
    11     2     1   ar
    12    21    22   ar
    13    21    20   ar
    14    22    23   ar
    15    15    11   ar
    16    15    14   ar
    17     4    11    1
    18     4     5   ar
    19    19    18    1
    20    11    12   ar
    21     1     6    1
    22     1     5   ar
    23    20    14    1
    24    20    24   ar
    25    14    13   ar
    26    23    25    1
    27    23    24   ar
    28    12    13   ar
    29    12    16    1
    30    13    18    1
    31    16    17    1
