@<TRIPOS>MOLECULE
mol_data/opt/m06hf/geoms/mol2/5fg5fg-5fg5fg-.out
 38 41 0 0 0
SMALL
GASTEIGER

@<TRIPOS>ATOM
      1 C          -1.8171   -2.0309    0.2858 C.ar    1  LIG1        0.0189
      2 C          -0.5639   -1.9184   -0.2234 C.ar    1  LIG1        0.1376
      3 C          -0.1321   -0.5482   -0.3520 C.ar    1  LIG1        0.0617
      4 C          -1.0741    0.3355    0.0887 C.ar    1  LIG1        0.0462
      5 S          -2.4881   -0.4854    0.6537 S.2     1  LIG1       -0.0912
      6 H          -2.3625   -2.9409    0.4672 H       1  LIG1        0.0731
      7 O           0.1980   -2.9737   -0.5931 O.3     1  LIG1       -0.5051
      8 H           1.0929   -2.6594   -0.7857 H       1  LIG1        0.2922
      9 S           1.4328   -0.1638   -1.0887 S.3     1  LIG1       -0.1380
     10 H           1.9066    0.5369   -0.0511 H       1  LIG1        0.1072
     11 C          -0.9730    1.7936    0.1474 C.ar    1  LIG1        0.0701
     12 C           0.0313    2.5334    0.7002 C.ar    1  LIG1        0.1458
     13 C          -0.2071    3.9497    0.6432 C.ar    1  LIG1        0.0623
     14 C          -1.3796    4.2541    0.0125 C.ar    1  LIG1        0.0468
     15 S          -2.2054    2.8282   -0.5027 S.2     1  LIG1       -0.0822
     16 O           1.1235    1.9987    1.2987 O.3     1  LIG1       -0.5045
     17 H           1.7401    2.7182    1.5031 H       1  LIG1        0.2922
     18 S           0.9308    5.1184    1.3375 S.3     1  LIG1       -0.1380
     19 H           0.6209    4.8605    2.6172 H       1  LIG1        0.1072
     20 C          -1.9131    5.5867   -0.2612 C.ar    1  LIG1        0.0702
     21 C          -1.2378    6.6229   -0.8373 C.ar    1  LIG1        0.1458
     22 C          -2.0410    7.8088   -0.9768 C.ar    1  LIG1        0.0623
     23 C          -3.3059    7.6369   -0.4906 C.ar    1  LIG1        0.0468
     24 S          -3.5338    6.0469    0.1471 S.2     1  LIG1       -0.0822
     25 O           0.0360    6.5277   -1.2637 O.3     1  LIG1       -0.5045
     26 H           0.3565    7.4084   -1.5070 H       1  LIG1        0.2922
     27 S          -1.3919    9.2490   -1.7788 S.3     1  LIG1       -0.1380
     28 H          -1.5698   10.0753   -0.7391 H       1  LIG1        0.1072
     29 C          -4.3742    8.6336   -0.4257 C.ar    1  LIG1        0.0696
     30 C          -4.2929    9.8888    0.1031 C.ar    1  LIG1        0.1452
     31 C          -5.5409   10.6028    0.0489 C.ar    1  LIG1        0.0539
     32 C          -6.5287    9.8674   -0.5280 C.ar    1  LIG1       -0.0069
     33 S          -5.9789    8.3167   -1.0054 S.2     1  LIG1       -0.0912
     34 H          -7.5491   10.1720   -0.6972 H       1  LIG1        0.0706
     35 O          -3.1697   10.4040    0.6558 O.3     1  LIG1       -0.5045
     36 H          -3.3527   11.3154    0.9306 H       1  LIG1        0.2922
     37 S          -5.6943   12.2642    0.6578 S.3     1  LIG1       -0.1386
     38 H          -5.9816   11.9415    1.9248 H       1  LIG1        0.1072
@<TRIPOS>BOND
     1    27    22    1
     2    27    28    1
     3    26    25    1
     4    25    21    1
     5     9     3    1
     6     9    10    1
     7    33    32   ar
     8    33    29   ar
     9    22    21   ar
    10    22    23   ar
    11    21    20   ar
    12     8     7    1
    13    34    32    1
    14     7     2    1
    15    32    31   ar
    16    15    14   ar
    17    15    11   ar
    18    23    29    1
    19    23    24   ar
    20    29    30   ar
    21     3     2   ar
    22     3     4   ar
    23    20    14    1
    24    20    24   ar
    25     2     1   ar
    26    14    13   ar
    27    31    30   ar
    28    31    37    1
    29     4    11    1
    30     4     5   ar
    31    30    35    1
    32    11    12   ar
    33     1     6    1
    34     1     5   ar
    35    13    12   ar
    36    13    18    1
    37    35    36    1
    38    37    38    1
    39    12    16    1
    40    16    17    1
    41    18    19    1
