@<TRIPOS>MOLECULE
mol_data/opt/m06hf/geoms/mol2/5fg5fg-5fg-5fg.out
 38 41 0 0 0
SMALL
GASTEIGER

@<TRIPOS>ATOM
      1 C          -1.1198   -1.8694    1.5054 C.ar    1  LIG1        0.0189
      2 C          -0.6290   -1.9041    0.2398 C.ar    1  LIG1        0.1376
      3 C          -0.4657   -0.5907   -0.3335 C.ar    1  LIG1        0.0617
      4 C          -0.8229    0.4012    0.5347 C.ar    1  LIG1        0.0462
      5 S          -1.3590   -0.2492    2.0430 S.2     1  LIG1       -0.0912
      6 H          -1.3357   -2.7122    2.1388 H       1  LIG1        0.0731
      7 O          -0.3385   -3.0442   -0.4272 O.3     1  LIG1       -0.5051
      8 H           0.0752   -2.8110   -1.2704 H       1  LIG1        0.2922
      9 S           0.0552   -0.3917   -2.0151 S.3     1  LIG1       -0.1380
     10 H           1.1935    0.2565   -1.7367 H       1  LIG1        0.1072
     11 C          -0.7720    1.8435    0.3049 C.ar    1  LIG1        0.0701
     12 C           0.2854    2.5684   -0.1615 C.ar    1  LIG1        0.1458
     13 C           0.0033    3.9741   -0.2791 C.ar    1  LIG1        0.0623
     14 C          -1.2597    4.2850    0.1369 C.ar    1  LIG1        0.0468
     15 S          -2.1223    2.8758    0.6497 S.2     1  LIG1       -0.0822
     16 O           1.4891    2.0297   -0.4680 O.3     1  LIG1       -0.5045
     17 H           2.1130    2.7500   -0.6461 H       1  LIG1        0.2922
     18 S           1.2090    5.0808   -0.9573 S.3     1  LIG1       -0.1380
     19 H           1.3191    5.8522    0.1317 H       1  LIG1        0.1072
     20 C          -1.8700    5.6116    0.2059 C.ar    1  LIG1        0.0702
     21 C          -1.3541    6.7220    0.8085 C.ar    1  LIG1        0.1458
     22 C          -2.2347    7.8567    0.7556 C.ar    1  LIG1        0.0623
     23 C          -3.3909    7.5864    0.0802 C.ar    1  LIG1        0.0468
     24 S          -3.4256    5.9529   -0.4816 S.2     1  LIG1       -0.0822
     25 O          -0.1593    6.7483    1.4445 O.3     1  LIG1       -0.5045
     26 H           0.0215    7.6623    1.7136 H       1  LIG1        0.2922
     27 S          -1.8131    9.4025    1.5160 S.3     1  LIG1       -0.1380
     28 H          -2.0794    9.0090    2.7707 H       1  LIG1        0.1072
     29 C          -4.4715    8.5226   -0.2213 C.ar    1  LIG1        0.0696
     30 C          -4.3253    9.7550   -0.7887 C.ar    1  LIG1        0.1452
     31 C          -5.5815   10.4369   -0.9636 C.ar    1  LIG1        0.0539
     32 C          -6.6376    9.6858   -0.5516 C.ar    1  LIG1       -0.0069
     33 S          -6.1431    8.1710    0.0820 S.2     1  LIG1       -0.0912
     34 H          -7.6803    9.9584   -0.5878 H       1  LIG1        0.0706
     35 O          -3.1356   10.2666   -1.1559 O.3     1  LIG1       -0.5045
     36 H          -3.2819   11.0848   -1.6524 H       1  LIG1        0.2922
     37 S          -5.6768   12.0416   -1.7185 S.3     1  LIG1       -0.1386
     38 H          -5.4686   12.7566   -0.6053 H       1  LIG1        0.1072
@<TRIPOS>BOND
     1     9    10    1
     2     9     3    1
     3    37    31    1
     4    37    38    1
     5    36    35    1
     6     8     7    1
     7    35    30    1
     8    31    30   ar
     9    31    32   ar
    10    18    13    1
    11    18    19    1
    12    30    29   ar
    13    17    16    1
    14    34    32    1
    15    32    33   ar
    16    24    23   ar
    17    24    20   ar
    18    16    12    1
    19     7     2    1
    20     3     2   ar
    21     3     4   ar
    22    13    12   ar
    23    13    14   ar
    24    29    23    1
    25    29    33   ar
    26    12    11   ar
    27    23    22   ar
    28    14    20    1
    29    14    15   ar
    30    20    21   ar
    31     2     1   ar
    32    11     4    1
    33    11    15   ar
    34     4     5   ar
    35    22    21   ar
    36    22    27    1
    37    21    25    1
    38    25    26    1
    39     1     5   ar
    40     1     6    1
    41    27    28    1
