@<TRIPOS>MOLECULE
mol_data/opt/m06hf/geoms/mol2/5fg5fg5fg5fg-.out
 38 41 0 0 0
SMALL
GASTEIGER

@<TRIPOS>ATOM
      1 C          -1.8199   -2.0570    0.2656 C.ar    1  LIG1        0.0189
      2 C          -0.5588   -1.9386   -0.2224 C.ar    1  LIG1        0.1376
      3 C          -0.1292   -0.5668   -0.3382 C.ar    1  LIG1        0.0617
      4 C          -1.0812    0.3123    0.0906 C.ar    1  LIG1        0.0462
      5 S          -2.5015   -0.5152    0.6291 S.2     1  LIG1       -0.0912
      6 H          -2.3653   -2.9694    0.4346 H       1  LIG1        0.0731
      7 O           0.2128   -2.9901   -0.5834 O.3     1  LIG1       -0.5051
      8 H           1.1093   -2.6714   -0.7611 H       1  LIG1        0.2922
      9 S           1.4459   -0.1740   -1.0481 S.3     1  LIG1       -0.1380
     10 H           1.9033    0.5216    0.0006 H       1  LIG1        0.1072
     11 C          -0.9817    1.7697    0.1615 C.ar    1  LIG1        0.0701
     12 C           0.0151    2.5015    0.7384 C.ar    1  LIG1        0.1458
     13 C          -0.2129    3.9200    0.6818 C.ar    1  LIG1        0.0623
     14 C          -1.3798    4.2308    0.0435 C.ar    1  LIG1        0.0468
     15 S          -2.2000    2.8117   -0.5025 S.2     1  LIG1       -0.0822
     16 O           1.0943    1.9553    1.3483 O.3     1  LIG1       -0.5045
     17 H           1.6670    2.6740    1.6570 H       1  LIG1        0.2922
     18 S           0.8893    5.0439    1.4925 S.3     1  LIG1       -0.1380
     19 H           1.2624    5.7043    0.3885 H       1  LIG1        0.1072
     20 C          -1.9130    5.5669   -0.2124 C.ar    1  LIG1        0.0702
     21 C          -1.2523    6.6207   -0.7742 C.ar    1  LIG1        0.1458
     22 C          -2.0692    7.7966   -0.9056 C.ar    1  LIG1        0.0623
     23 C          -3.3330    7.6052   -0.4231 C.ar    1  LIG1        0.0468
     24 S          -3.5389    6.0083    0.2007 S.2     1  LIG1       -0.0822
     25 O           0.0298    6.5616   -1.2017 O.3     1  LIG1       -0.5045
     26 H           0.2680    7.4229   -1.5783 H       1  LIG1        0.2922
     27 S          -1.4469    9.2490   -1.7080 S.3     1  LIG1       -0.1380
     28 H          -1.4660   10.0320   -0.6197 H       1  LIG1        0.1072
     29 C          -4.4067    8.5950   -0.3555 C.ar    1  LIG1        0.0696
     30 C          -4.3228    9.8532    0.1664 C.ar    1  LIG1        0.1452
     31 C          -5.5660   10.5740    0.0916 C.ar    1  LIG1        0.0539
     32 C          -6.5521    9.8385   -0.4883 C.ar    1  LIG1       -0.0069
     33 S          -6.0082    8.2795   -0.9436 S.2     1  LIG1       -0.0912
     34 H          -7.5682   10.1483   -0.6738 H       1  LIG1        0.0706
     35 O          -3.2034   10.3654    0.7264 O.3     1  LIG1       -0.5045
     36 H          -3.3907   11.2727    1.0116 H       1  LIG1        0.2922
     37 S          -5.7040   12.2500    0.6607 S.3     1  LIG1       -0.1386
     38 H          -6.1091   11.9733    1.9086 H       1  LIG1        0.1072
@<TRIPOS>BOND
     1    27    22    1
     2    27    28    1
     3    26    25    1
     4    25    21    1
     5     9     3    1
     6     9    10    1
     7    33    32   ar
     8    33    29   ar
     9    22    21   ar
    10    22    23   ar
    11    21    20   ar
    12     8     7    1
    13    34    32    1
    14     7     2    1
    15    15    14   ar
    16    15    11   ar
    17    32    31   ar
    18    23    29    1
    19    23    24   ar
    20    29    30   ar
    21     3     2   ar
    22     3     4   ar
    23     2     1   ar
    24    20    14    1
    25    20    24   ar
    26    14    13   ar
    27     4    11    1
    28     4     5   ar
    29    31    30   ar
    30    31    37    1
    31    11    12   ar
    32    30    35    1
    33     1     6    1
    34     1     5   ar
    35    19    18    1
    36    37    38    1
    37    13    12   ar
    38    13    18    1
    39    35    36    1
    40    12    16    1
    41    16    17    1
