@<TRIPOS>MOLECULE
mol_data/opt/m06hf/geoms/mol2/5fg5fg5fg-5fg-.out
 38 41 0 0 0
SMALL
GASTEIGER

@<TRIPOS>ATOM
      1 C          -1.0994   -1.9032    1.4745 C.ar    1  LIG1        0.0189
      2 C          -0.6546   -1.9349    0.1920 C.ar    1  LIG1        0.1376
      3 C          -0.5036   -0.6198   -0.3807 C.ar    1  LIG1        0.0617
      4 C          -0.8229    0.3701    0.5044 C.ar    1  LIG1        0.0462
      5 S          -1.3082   -0.2841    2.0281 S.2     1  LIG1       -0.0912
      6 H          -1.2980   -2.7477    2.1114 H       1  LIG1        0.0731
      7 O          -0.3957   -3.0737   -0.4903 O.3     1  LIG1       -0.5051
      8 H          -0.0130   -2.8392   -1.3476 H       1  LIG1        0.2922
      9 S          -0.0438   -0.4156   -2.0793 S.3     1  LIG1       -0.1380
     10 H           1.1063    0.2273   -1.8405 H       1  LIG1        0.1072
     11 C          -0.7719    1.8130    0.2791 C.ar    1  LIG1        0.0701
     12 C           0.2724    2.5341   -0.2215 C.ar    1  LIG1        0.1458
     13 C          -0.0057    3.9418   -0.3229 C.ar    1  LIG1        0.0623
     14 C          -1.2513    4.2578    0.1389 C.ar    1  LIG1        0.0468
     15 S          -2.1030    2.8512    0.6768 S.2     1  LIG1       -0.0822
     16 O           1.4612    1.9900   -0.5736 O.3     1  LIG1       -0.5045
     17 H           2.0844    2.7077   -0.7641 H       1  LIG1        0.2922
     18 S           1.1808    5.0453   -1.0394 S.3     1  LIG1       -0.1380
     19 H           1.3294    5.8154    0.0463 H       1  LIG1        0.1072
     20 C          -1.8511    5.5872    0.2334 C.ar    1  LIG1        0.0702
     21 C          -1.3046    6.6943    0.8153 C.ar    1  LIG1        0.1458
     22 C          -2.1748    7.8389    0.7878 C.ar    1  LIG1        0.0623
     23 C          -3.3632    7.5696    0.1698 C.ar    1  LIG1        0.0468
     24 S          -3.4297    5.9369   -0.3939 S.2     1  LIG1       -0.0822
     25 O          -0.0866    6.7096    1.4045 O.3     1  LIG1       -0.5045
     26 H           0.0773    7.6027    1.7451 H       1  LIG1        0.2922
     27 S          -1.7216    9.3373    1.6151 S.3     1  LIG1       -0.1380
     28 H          -1.6490   10.1079    0.5209 H       1  LIG1        0.1072
     29 C          -4.4595    8.5049   -0.0683 C.ar    1  LIG1        0.0696
     30 C          -4.3621    9.7477   -0.6234 C.ar    1  LIG1        0.1452
     31 C          -5.6331   10.4142   -0.7296 C.ar    1  LIG1        0.0539
     32 C          -6.6572    9.6426   -0.2773 C.ar    1  LIG1       -0.0069
     33 S          -6.1097    8.1299    0.3145 S.2     1  LIG1       -0.0912
     34 H          -7.7045    9.8995   -0.2604 H       1  LIG1        0.0706
     35 O          -3.2000   10.2920   -1.0524 O.3     1  LIG1       -0.5045
     36 H          -3.4038   11.0685   -1.5951 H       1  LIG1        0.2922
     37 S          -5.7860   12.0208   -1.4706 S.3     1  LIG1       -0.1386
     38 H          -5.5258   12.7346   -0.3676 H       1  LIG1        0.1072
@<TRIPOS>BOND
     1     9    10    1
     2     9     3    1
     3    36    35    1
     4    37    31    1
     5    37    38    1
     6     8     7    1
     7    35    30    1
     8    18    13    1
     9    18    19    1
    10    17    16    1
    11    31    30   ar
    12    31    32   ar
    13    30    29   ar
    14    16    12    1
    15     7     2    1
    16    24    23   ar
    17    24    20   ar
    18     3     2   ar
    19     3     4   ar
    20    13    12   ar
    21    13    14   ar
    22    32    34    1
    23    32    33   ar
    24    12    11   ar
    25    29    23    1
    26    29    33   ar
    27    14    20    1
    28    14    15   ar
    29    23    22   ar
    30     2     1   ar
    31    20    21   ar
    32    11     4    1
    33    11    15   ar
    34     4     5   ar
    35    28    27    1
    36    22    21   ar
    37    22    27    1
    38    21    25    1
    39    25    26    1
    40     1     5   ar
    41     1     6    1
