@<TRIPOS>MOLECULE
mol_data/opt/m06hf/geoms/mol2/5fg5fg-5fg-.out
 29 31 0 0 0
SMALL
GASTEIGER

@<TRIPOS>ATOM
      1 C          -1.8094   -1.7831    1.1874 C.ar    1  LIG1        0.0189
      2 C          -0.8830   -1.8506    0.1972 C.ar    1  LIG1        0.1376
      3 C          -0.4756   -0.5507   -0.2753 C.ar    1  LIG1        0.0617
      4 C          -1.0981    0.4632    0.3944 C.ar    1  LIG1        0.0462
      5 S          -2.1809   -0.1495    1.5931 S.2     1  LIG1       -0.0912
      6 H          -2.2741   -2.6106    1.6948 H       1  LIG1        0.0731
      7 O          -0.4019   -3.0075   -0.3121 O.3     1  LIG1       -0.5051
      8 H           0.3130   -2.7983   -0.9302 H       1  LIG1        0.2922
      9 S           0.6362   -0.3888   -1.6454 S.3     1  LIG1       -0.1380
     10 H           1.6100    0.2470   -0.9795 H       1  LIG1        0.1072
     11 C          -0.9057    1.8976    0.1891 C.ar    1  LIG1        0.0701
     12 C           0.2817    2.5674    0.1604 C.ar    1  LIG1        0.1458
     13 C           0.1367    3.9729   -0.1070 C.ar    1  LIG1        0.0623
     14 C          -1.1719    4.3398   -0.2416 C.ar    1  LIG1        0.0468
     15 S          -2.2316    2.9879   -0.0599 S.2     1  LIG1       -0.0822
     16 O           1.4820    1.9751    0.3653 O.3     1  LIG1       -0.5045
     17 H           2.1559    2.6668    0.4487 H       1  LIG1        0.2922
     18 S           1.5660    4.9978   -0.3100 S.3     1  LIG1       -0.1380
     19 H           1.2686    5.8573    0.6745 H       1  LIG1        0.1072
     20 C          -1.6916    5.6797   -0.5102 C.ar    1  LIG1        0.0696
     21 C          -1.3799    6.8360    0.1423 C.ar    1  LIG1        0.1452
     22 C          -2.0703    7.9826   -0.3868 C.ar    1  LIG1        0.0539
     23 C          -2.8810    7.6585   -1.4297 C.ar    1  LIG1       -0.0069
     24 S          -2.8336    5.9833   -1.7832 S.2     1  LIG1       -0.0912
     25 H          -3.4964    8.3319   -2.0045 H       1  LIG1        0.0706
     26 O          -0.5346    6.9041    1.1973 O.3     1  LIG1       -0.5045
     27 H          -0.4471    7.8326    1.4614 H       1  LIG1        0.2922
     28 S          -1.7973    9.6151    0.2552 S.3     1  LIG1       -0.1386
     29 H          -2.7580    9.5933    1.1895 H       1  LIG1        0.1072
@<TRIPOS>BOND
     1    25    23    1
     2    24    23   ar
     3    24    20   ar
     4     9    10    1
     5     9     3    1
     6    23    22   ar
     7     8     7    1
     8    20    14    1
     9    20    21   ar
    10    22    21   ar
    11    22    28    1
    12     7     2    1
    13    18    13    1
    14    18    19    1
    15     3     2   ar
    16     3     4   ar
    17    14    13   ar
    18    14    15   ar
    19    13    12   ar
    20    15    11   ar
    21    21    26    1
    22    12    11   ar
    23    12    16    1
    24    11     4    1
    25     2     1   ar
    26    28    29    1
    27    16    17    1
    28     4     5   ar
    29     1     5   ar
    30     1     6    1
    31    26    27    1
