@<TRIPOS>MOLECULE
mol_data/opt/m06hf/geoms/mol2/5fg5fg-.out
 20 21 0 0 0
SMALL
GASTEIGER

@<TRIPOS>ATOM
      1 C          -2.0070   -1.7561    0.6465 C.ar    1  LIG1        0.0189
      2 C          -0.7903   -1.7849    0.0448 C.ar    1  LIG1        0.1376
      3 C          -0.3218   -0.4737   -0.3310 C.ar    1  LIG1        0.0617
      4 C          -1.1992    0.5108    0.0218 C.ar    1  LIG1        0.0462
      5 S          -2.5940   -0.1429    0.8036 S.2     1  LIG1       -0.0912
      6 H          -2.5705   -2.5990    1.0073 H       1  LIG1        0.0731
      7 O          -0.0937   -2.9183   -0.1987 O.3     1  LIG1       -0.5051
      8 H           0.7843   -2.6776   -0.5264 H       1  LIG1        0.2922
      9 S           1.1955   -0.2738   -1.2242 S.3     1  LIG1       -0.1380
     10 H           1.8011    0.4965   -0.3092 H       1  LIG1        0.1072
     11 C          -1.0400    1.9509   -0.1779 C.ar    1  LIG1        0.0695
     12 C           0.0334    2.7191    0.1649 C.ar    1  LIG1        0.1452
     13 C          -0.1346    4.1067   -0.1800 C.ar    1  LIG1        0.0539
     14 C          -1.3313    4.3477   -0.7788 C.ar    1  LIG1       -0.0069
     15 S          -2.2684    2.9206   -0.9319 S.2     1  LIG1       -0.0912
     16 H          -1.6957    5.2958   -1.1402 H       1  LIG1        0.0706
     17 O           1.1355    2.2428    0.7913 O.3     1  LIG1       -0.5045
     18 H           1.7682    2.9698    0.8935 H       1  LIG1        0.2922
     19 S           1.1457    5.3016    0.1118 S.3     1  LIG1       -0.1386
     20 H           0.7422    5.6914    1.3275 H       1  LIG1        0.1072
@<TRIPOS>BOND
     1     9     3    1
     2     9    10    1
     3    16    14    1
     4    15    14   ar
     5    15    11   ar
     6    14    13   ar
     7     8     7    1
     8     3     4   ar
     9     3     2   ar
    10     7     2    1
    11    13    19    1
    12    13    12   ar
    13    11     4    1
    14    11    12   ar
    15     4     5   ar
    16     2     1   ar
    17    19    20    1
    18    12    17    1
    19     1     5   ar
    20     1     6    1
    21    17    18    1
