@<TRIPOS>MOLECULE
mol_data/opt/m06hf/geoms/mol2/5fg5fg5fg-5fg.out
 38 41 0 0 0
SMALL
GASTEIGER

@<TRIPOS>ATOM
      1 C          -1.8209   -2.0217    0.4299 C.ar    1  LIG1        0.0189
      2 C          -0.5659   -1.9222   -0.0774 C.ar    1  LIG1        0.1376
      3 C          -0.1329   -0.5557   -0.2377 C.ar    1  LIG1        0.0617
      4 C          -1.0759    0.3388    0.1783 C.ar    1  LIG1        0.0462
      5 S          -2.4923   -0.4675    0.7581 S.2     1  LIG1       -0.0912
      6 H          -2.3676   -2.9268    0.6313 H       1  LIG1        0.0731
      7 O           0.1968   -2.9865   -0.4187 O.3     1  LIG1       -0.5051
      8 H           1.0925   -2.6774   -0.6161 H       1  LIG1        0.2922
      9 S           1.4346   -0.1900   -0.9784 S.3     1  LIG1       -0.1380
     10 H           1.9054    0.5354    0.0435 H       1  LIG1        0.1072
     11 C          -0.9740    1.7979    0.2025 C.ar    1  LIG1        0.0701
     12 C           0.0287    2.5502    0.7411 C.ar    1  LIG1        0.1458
     13 C          -0.2087    3.9648    0.6497 C.ar    1  LIG1        0.0623
     14 C          -1.3790    4.2547    0.0081 C.ar    1  LIG1        0.0468
     15 S          -2.2038    2.8174   -0.4760 S.2     1  LIG1       -0.0822
     16 O           1.1187    2.0293    1.3556 O.3     1  LIG1       -0.5045
     17 H           1.7344    2.7533    1.5462 H       1  LIG1        0.2922
     18 S           0.9271    5.1492    1.3205 S.3     1  LIG1       -0.1380
     19 H           0.6118    4.9216    2.6046 H       1  LIG1        0.1072
     20 C          -1.9110    5.5806   -0.2989 C.ar    1  LIG1        0.0702
     21 C          -1.2334    6.6028   -0.8968 C.ar    1  LIG1        0.1458
     22 C          -2.0359    7.7852   -1.0673 C.ar    1  LIG1        0.0623
     23 C          -3.3026    7.6250   -0.5816 C.ar    1  LIG1        0.0468
     24 S          -3.5330    6.0505    0.0927 S.2     1  LIG1       -0.0822
     25 O           0.0419    6.4975   -1.3162 O.3     1  LIG1       -0.5045
     26 H           0.3636    7.3722   -1.5790 H       1  LIG1        0.2922
     27 S          -1.3837    9.2060   -1.9007 S.3     1  LIG1       -0.1380
     28 H          -1.5653   10.0569   -0.8818 H       1  LIG1        0.1072
     29 C          -4.3710    8.6230   -0.5441 C.ar    1  LIG1        0.0696
     30 C          -4.2917    9.8904   -0.0449 C.ar    1  LIG1        0.1452
     31 C          -5.5395   10.6026   -0.1201 C.ar    1  LIG1        0.0539
     32 C          -6.5252    9.8537   -0.6831 C.ar    1  LIG1       -0.0069
     33 S          -5.9736    8.2923   -1.1220 S.2     1  LIG1       -0.0912
     34 H          -7.5451   10.1540   -0.8629 H       1  LIG1        0.0706
     35 O          -3.1706   10.4186    0.4997 O.3     1  LIG1       -0.5045
     36 H          -3.3545   11.3362    0.7523 H       1  LIG1        0.2922
     37 S          -5.6954   12.2777    0.4492 S.3     1  LIG1       -0.1386
     38 H          -5.9866   11.9848    1.7225 H       1  LIG1        0.1072
@<TRIPOS>BOND
     1    27    22    1
     2    27    28    1
     3    26    25    1
     4    25    21    1
     5    33    32   ar
     6    33    29   ar
     7    22    21   ar
     8    22    23   ar
     9     9     3    1
    10     9    10    1
    11    21    20   ar
    12    34    32    1
    13    32    31   ar
    14     8     7    1
    15    23    29    1
    16    23    24   ar
    17    29    30   ar
    18    15    14   ar
    19    15    11   ar
    20     7     2    1
    21    20    14    1
    22    20    24   ar
    23     3     2   ar
    24     3     4   ar
    25    31    30   ar
    26    31    37    1
    27     2     1   ar
    28    30    35    1
    29    14    13   ar
    30     4    11    1
    31     4     5   ar
    32    11    12   ar
    33     1     6    1
    34     1     5   ar
    35    37    38    1
    36    35    36    1
    37    13    12   ar
    38    13    18    1
    39    12    16    1
    40    18    19    1
    41    16    17    1
