@<TRIPOS>MOLECULE
mol_data/opt/m06hf/geoms/mol2/5fg5fg5fg-.out
 29 31 0 0 0
SMALL
GASTEIGER

@<TRIPOS>ATOM
      1 C          -1.8173   -1.9268    0.4891 C.ar    1  LIG1        0.0189
      2 C          -0.7088   -1.8053   -0.2851 C.ar    1  LIG1        0.1376
      3 C          -0.3075   -0.4330   -0.4762 C.ar    1  LIG1        0.0617
      4 C          -1.1199    0.4420    0.1854 C.ar    1  LIG1        0.0462
      5 S          -2.3756   -0.3899    1.0360 S.2     1  LIG1       -0.0912
      6 H          -2.3140   -2.8399    0.7683 H       1  LIG1        0.0731
      7 O          -0.0516   -2.8518   -0.8350 O.3     1  LIG1       -0.5051
      8 H           0.7583   -2.5241   -1.2518 H       1  LIG1        0.2922
      9 S           1.0541   -0.0290   -1.5361 S.3     1  LIG1       -0.1380
     10 H           1.7918    0.5803   -0.5990 H       1  LIG1        0.1072
     11 C          -0.9947    1.8976    0.2510 C.ar    1  LIG1        0.0701
     12 C           0.1136    2.6149    0.5947 C.ar    1  LIG1        0.1458
     13 C          -0.1131    4.0340    0.6158 C.ar    1  LIG1        0.0623
     14 C          -1.3883    4.3627    0.2531 C.ar    1  LIG1        0.0468
     15 S          -2.3235    2.9562   -0.1032 S.2     1  LIG1       -0.0822
     16 O           1.2977    2.0545    0.9372 O.3     1  LIG1       -0.5045
     17 H           1.9461    2.7647    1.0605 H       1  LIG1        0.2922
     18 S           1.1639    5.1730    1.0852 S.3     1  LIG1       -0.1380
     19 H           1.0300    4.9942    2.4074 H       1  LIG1        0.1072
     20 C          -1.9469    5.7066    0.1145 C.ar    1  LIG1        0.0696
     21 C          -1.4082    6.7309   -0.6079 C.ar    1  LIG1        0.1452
     22 C          -2.2024    7.9312   -0.5447 C.ar    1  LIG1        0.0539
     23 C          -3.3315    7.7648    0.1945 C.ar    1  LIG1       -0.0069
     24 S          -3.4411    6.1854    0.8541 S.2     1  LIG1       -0.0912
     25 H          -4.0948    8.5018    0.3863 H       1  LIG1        0.0706
     26 O          -0.2664    6.6253   -1.3126 O.3     1  LIG1       -0.5045
     27 H          -0.1536    7.4215   -1.8513 H       1  LIG1        0.2922
     28 S          -1.7329    9.4116   -1.4060 S.3     1  LIG1       -0.1386
     29 H          -0.9339    9.8975   -0.4476 H       1  LIG1        0.1072
@<TRIPOS>BOND
     1    27    26    1
     2     9    10    1
     3     9     3    1
     4    28    22    1
     5    28    29    1
     6    26    21    1
     7     8     7    1
     8     7     2    1
     9    21    22   ar
    10    21    20   ar
    11    22    23   ar
    12     3     2   ar
    13     3     4   ar
    14     2     1   ar
    15    15    11   ar
    16    15    14   ar
    17    20    14    1
    18    20    24   ar
    19     4    11    1
    20     4     5   ar
    21    23    25    1
    22    23    24   ar
    23    11    12   ar
    24    14    13   ar
    25     1     6    1
    26     1     5   ar
    27    12    13   ar
    28    12    16    1
    29    13    18    1
    30    16    17    1
    31    18    19    1
