@<TRIPOS>MOLECULE
mol_data/opt/m06hf/geoms/mol2/5fh.out
 12 12 0 0 0
SMALL
GASTEIGER

@<TRIPOS>ATOM
      1 C          -2.1373   -1.7475    0.1124 C.ar    1  LIG1        0.0190
      2 C          -0.7831   -1.7429    0.0484 C.ar    1  LIG1        0.1444
      3 C          -0.2306   -0.4230   -0.1380 C.ar    1  LIG1        0.0737
      4 C          -1.1922    0.5335   -0.2094 C.ar    1  LIG1        0.0000
      5 S          -2.7650   -0.1434   -0.0536 S.2     1  LIG1       -0.0995
      6 H          -2.7902   -2.5921    0.2460 H       1  LIG1        0.0731
      7 H          -1.0601    1.5952   -0.3449 H       1  LIG1        0.0713
      8 O           0.0377   -2.8111    0.1402 O.3     1  LIG1       -0.5044
      9 H           0.9372   -2.4504    0.0574 H       1  LIG1        0.2922
     10 N           1.1940   -0.3144   -0.2172 N.pl3   1  LIG1       -0.3547
     11 H           1.4964    0.0571   -1.1119 H       1  LIG1        0.1424
     12 H           1.5719    0.2653    0.5251 H       1  LIG1        0.1424
@<TRIPOS>BOND
     1    11    10    1
     2     7     4    1
     3    10     3    1
     4    10    12    1
     5     4     3   ar
     6     4     5   ar
     7     3     2   ar
     8     5     1   ar
     9     2     1   ar
    10     2     8    1
    11     9     8    1
    12     1     6    1
