@<TRIPOS>MOLECULE
mol_data/opt/m06hf/geoms/mol2/5fh5fh5fh-5fh-.out
 42 45 0 0 0
SMALL
GASTEIGER

@<TRIPOS>ATOM
      1 C          -1.8687   -2.1753   -0.2845 C.ar    1  LIG1        0.0197
      2 C          -0.5760   -2.0674    0.1067 C.ar    1  LIG1        0.1450
      3 C          -0.1095   -0.7050    0.1686 C.ar    1  LIG1        0.0822
      4 C          -1.0665    0.1919   -0.2049 C.ar    1  LIG1        0.0538
      5 S          -2.5435   -0.6153   -0.6241 S.2     1  LIG1       -0.0904
      6 H          -2.4525   -3.0716   -0.4003 H       1  LIG1        0.0731
      7 O           0.2622   -3.0732    0.4355 O.3     1  LIG1       -0.5044
      8 H           1.1124   -2.6393    0.6275 H       1  LIG1        0.2922
      9 N           1.2282   -0.4819    0.6079 N.pl3   1  LIG1       -0.3542
     10 H           1.7131    0.1366   -0.0410 H       1  LIG1        0.1425
     11 H           1.2344   -0.0373    1.5232 H       1  LIG1        0.1425
     12 C          -0.9236    1.6430   -0.2767 C.ar    1  LIG1        0.0716
     13 C           0.1627    2.3547   -0.6893 C.ar    1  LIG1        0.1533
     14 C          -0.0301    3.7775   -0.6669 C.ar    1  LIG1        0.0828
     15 C          -1.2705    4.1283   -0.2222 C.ar    1  LIG1        0.0544
     16 S          -2.2099    2.7263    0.1855 S.2     1  LIG1       -0.0814
     17 O           1.3383    1.8552   -1.1349 O.3     1  LIG1       -0.5037
     18 H           1.8750    2.6394   -1.3576 H       1  LIG1        0.2923
     19 N           1.0403    4.5960   -1.1315 N.pl3   1  LIG1       -0.3542
     20 H           0.7756    5.0720   -1.9912 H       1  LIG1        0.1425
     21 H           1.2607    5.3103   -0.4380 H       1  LIG1        0.1425
     22 C          -1.7747    5.4868   -0.0600 C.ar    1  LIG1        0.0716
     23 C          -1.0889    6.5712    0.3985 C.ar    1  LIG1        0.1533
     24 C          -1.8743    7.7713    0.4655 C.ar    1  LIG1        0.0828
     25 C          -3.1538    7.5799    0.0334 C.ar    1  LIG1        0.0544
     26 S          -3.4107    5.9384   -0.4652 S.2     1  LIG1       -0.0814
     27 O           0.1982    6.5999    0.8114 O.3     1  LIG1       -0.5037
     28 H           0.3508    7.5240    1.0868 H       1  LIG1        0.2923
     29 N          -1.2460    8.9347    0.9957 N.pl3   1  LIG1       -0.3542
     30 H          -1.3834    9.7282    0.3710 H       1  LIG1        0.1425
     31 H          -1.6470    9.1774    1.8990 H       1  LIG1        0.1425
     32 C          -4.2042    8.5905   -0.0397 C.ar    1  LIG1        0.0710
     33 C          -4.0703    9.9013   -0.3897 C.ar    1  LIG1        0.1527
     34 C          -5.3081   10.6337   -0.3698 C.ar    1  LIG1        0.0744
     35 C          -6.3606    9.8525   -0.0139 C.ar    1  LIG1        0.0006
     36 S          -5.8710    8.2370    0.3184 S.2     1  LIG1       -0.0905
     37 H          -7.3967   10.1392    0.0733 H       1  LIG1        0.0713
     38 O          -2.9289   10.5255   -0.7606 O.3     1  LIG1       -0.5038
     39 H          -3.1960   11.4366   -0.9833 H       1  LIG1        0.2923
     40 N          -5.2470   12.0131   -0.7396 N.pl3   1  LIG1       -0.3547
     41 H          -5.8202   12.2168   -1.5518 H       1  LIG1        0.1424
     42 H          -5.5198   12.6268    0.0216 H       1  LIG1        0.1424
@<TRIPOS>BOND
     1    20    19    1
     2    41    40    1
     3    18    17    1
     4    17    13    1
     5    19    14    1
     6    19    21    1
     7    39    38    1
     8    38    33    1
     9    40    34    1
    10    40    42    1
    11    13    14   ar
    12    13    12   ar
    13    14    15   ar
    14     5     1   ar
    15     5     4   ar
    16    26    22   ar
    17    26    25   ar
    18     6     1    1
    19    33    34   ar
    20    33    32   ar
    21    34    35   ar
    22     1     2   ar
    23    12     4    1
    24    12    16   ar
    25    15    22    1
    26    15    16   ar
    27     4     3   ar
    28    22    23   ar
    29    10     9    1
    30    32    25    1
    31    32    36   ar
    32    35    37    1
    33    35    36   ar
    34    25    24   ar
    35     2     3   ar
    36     2     7    1
    37     3     9    1
    38    30    29    1
    39    23    24   ar
    40    23    27    1
    41     7     8    1
    42    24    29    1
    43     9    11    1
    44    27    28    1
    45    29    31    1
