@<TRIPOS>MOLECULE
mol_data/opt/m06hf/geoms/mol2/5fh5fh-5fh-5fh.out
 42 45 0 0 0
SMALL
GASTEIGER

@<TRIPOS>ATOM
      1 C          -1.8683   -2.1739   -0.2981 C.ar    1  LIG1        0.0197
      2 C          -0.5761   -2.0679    0.0953 C.ar    1  LIG1        0.1450
      3 C          -0.1096   -0.7059    0.1647 C.ar    1  LIG1        0.0822
      4 C          -1.0661    0.1929   -0.2055 C.ar    1  LIG1        0.0538
      5 S          -2.5426   -0.6122   -0.6309 S.2     1  LIG1       -0.0904
      6 H          -2.4519   -3.0696   -0.4192 H       1  LIG1        0.0731
      7 O           0.2616   -3.0755    0.4201 O.3     1  LIG1       -0.5044
      8 H           1.1117   -2.6425    0.6151 H       1  LIG1        0.2922
      9 N           1.2275   -0.4851    0.6068 N.pl3   1  LIG1       -0.3542
     10 H           1.7131    0.1371   -0.0381 H       1  LIG1        0.1425
     11 H           1.2326   -0.0457    1.5247 H       1  LIG1        0.1425
     12 C          -0.9233    1.6443   -0.2697 C.ar    1  LIG1        0.0716
     13 C           0.1634    2.3584   -0.6770 C.ar    1  LIG1        0.1533
     14 C          -0.0296    3.7810   -0.6475 C.ar    1  LIG1        0.0828
     15 C          -1.2708    4.1293   -0.2027 C.ar    1  LIG1        0.0544
     16 S          -2.2104    2.7250    0.1964 S.2     1  LIG1       -0.0814
     17 O           1.3397    1.8614   -1.1236 O.3     1  LIG1       -0.5037
     18 H           1.8766    2.6467   -1.3417 H       1  LIG1        0.2923
     19 N           1.0412    4.6021   -1.1062 N.pl3   1  LIG1       -0.3542
     20 H           0.7776    5.0829   -1.9636 H       1  LIG1        0.1425
     21 H           1.2606    5.3127   -0.4084 H       1  LIG1        0.1425
     22 C          -1.7753    5.4868   -0.0341 C.ar    1  LIG1        0.0716
     23 C          -1.0903    6.5688    0.4314 C.ar    1  LIG1        0.1533
     24 C          -1.8759    7.7685    0.5036 C.ar    1  LIG1        0.0828
     25 C          -3.1547    7.5793    0.0686 C.ar    1  LIG1        0.0544
     26 S          -3.4107    5.9404   -0.4391 S.2     1  LIG1       -0.0814
     27 O           0.1962    6.5952    0.8463 O.3     1  LIG1       -0.5037
     28 H           0.3484    7.5179    1.1268 H       1  LIG1        0.2923
     29 N          -1.2484    8.9292    1.0407 N.pl3   1  LIG1       -0.3542
     30 H          -1.3853    9.7259    0.4199 H       1  LIG1        0.1425
     31 H          -1.6506    9.1670    1.9448 H       1  LIG1        0.1425
     32 C          -4.2051    8.5902   -0.0008 C.ar    1  LIG1        0.0710
     33 C          -4.0708    9.9028   -0.3438 C.ar    1  LIG1        0.1527
     34 C          -5.3086   10.6351   -0.3217 C.ar    1  LIG1        0.0744
     35 C          -6.3615    9.8521    0.0290 C.ar    1  LIG1        0.0006
     36 S          -5.8724    8.2349    0.3533 S.2     1  LIG1       -0.0905
     37 H          -7.3977   10.1383    0.1165 H       1  LIG1        0.0713
     38 O          -2.9289   10.5289   -0.7099 O.3     1  LIG1       -0.5038
     39 H          -3.1956   11.4414   -0.9278 H       1  LIG1        0.2923
     40 N          -5.2471   12.0165   -0.6842 N.pl3   1  LIG1       -0.3547
     41 H          -5.8183   12.2242   -1.4968 H       1  LIG1        0.1424
     42 H          -5.5221   12.6261    0.0795 H       1  LIG1        0.1424
@<TRIPOS>BOND
     1    20    19    1
     2    41    40    1
     3    18    17    1
     4    17    13    1
     5    19    14    1
     6    19    21    1
     7    39    38    1
     8    38    33    1
     9    40    34    1
    10    40    42    1
    11    13    14   ar
    12    13    12   ar
    13    14    15   ar
    14     5     1   ar
    15     5     4   ar
    16    26    22   ar
    17    26    25   ar
    18     6     1    1
    19    33    34   ar
    20    33    32   ar
    21    34    35   ar
    22     1     2   ar
    23    12     4    1
    24    12    16   ar
    25     4     3   ar
    26    15    22    1
    27    15    16   ar
    28    10     9    1
    29    22    23   ar
    30    32    25    1
    31    32    36   ar
    32    35    37    1
    33    35    36   ar
    34    25    24   ar
    35     2     3   ar
    36     2     7    1
    37     3     9    1
    38    30    29    1
    39     7     8    1
    40    23    24   ar
    41    23    27    1
    42    24    29    1
    43     9    11    1
    44    27    28    1
    45    29    31    1
