@<TRIPOS>MOLECULE
mol_data/opt/m06hf/geoms/mol2/5fh5fh5fh5fh.out
 42 45 0 0 0
SMALL
GASTEIGER

@<TRIPOS>ATOM
      1 C          -1.4469   -2.0931   -1.2834 C.ar    1  LIG1        0.0197
      2 C          -0.6225   -2.0469   -0.2090 C.ar    1  LIG1        0.1450
      3 C          -0.2994   -0.7049    0.2056 C.ar    1  LIG1        0.0822
      4 C          -0.8765    0.2403   -0.5899 C.ar    1  LIG1        0.0538
      5 S          -1.8215   -0.4961   -1.8440 S.2     1  LIG1       -0.0904
      6 H          -1.8410   -2.9638   -1.7779 H       1  LIG1        0.0731
      7 O          -0.1184   -3.0948    0.4772 O.3     1  LIG1       -0.5044
      8 H           0.4686   -2.6983    1.1452 H       1  LIG1        0.2922
      9 N           0.5318   -0.5478    1.3529 N.pl3   1  LIG1       -0.3542
     10 H           1.2795    0.1169    1.1599 H       1  LIG1        0.1425
     11 H          -0.0078   -0.1938    2.1396 H       1  LIG1        0.1425
     12 C          -0.7517    1.6885   -0.4538 C.ar    1  LIG1        0.0716
     13 C           0.3518    2.4010   -0.0943 C.ar    1  LIG1        0.1533
     14 C           0.1358    3.8195   -0.0284 C.ar    1  LIG1        0.0828
     15 C          -1.1360    4.1683   -0.3750 C.ar    1  LIG1        0.0544
     16 S          -2.0862    2.7695   -0.7597 S.2     1  LIG1       -0.0814
     17 O           1.5802    1.9076    0.1859 O.3     1  LIG1       -0.5037
     18 H           2.1373    2.6946    0.3370 H       1  LIG1        0.2923
     19 N           1.2363    4.6328    0.3683 N.pl3   1  LIG1       -0.3542
     20 H           1.3587    5.4040   -0.2871 H       1  LIG1        0.1425
     21 H           1.0758    5.0299    1.2914 H       1  LIG1        0.1425
     22 C          -1.6794    5.5206   -0.4421 C.ar    1  LIG1        0.0716
     23 C          -1.0518    6.6487   -0.8777 C.ar    1  LIG1        0.1533
     24 C          -1.8749    7.8249   -0.8387 C.ar    1  LIG1        0.0828
     25 C          -3.1241    7.5695   -0.3561 C.ar    1  LIG1        0.0544
     26 S          -3.3045    5.8975    0.0665 S.2     1  LIG1       -0.0814
     27 O           0.2096    6.7417   -1.3558 O.3     1  LIG1       -0.5037
     28 H           0.3225    7.6839   -1.5840 H       1  LIG1        0.2923
     29 N          -1.3094    9.0379   -1.3267 N.pl3   1  LIG1       -0.3542
     30 H          -1.7730    9.3302   -2.1839 H       1  LIG1        0.1425
     31 H          -1.4231    9.7827   -0.6401 H       1  LIG1        0.1425
     32 C          -4.1950    8.5419   -0.1663 C.ar    1  LIG1        0.0710
     33 C          -4.0769    9.8254    0.2770 C.ar    1  LIG1        0.1527
     34 C          -5.3318   10.5227    0.3672 C.ar    1  LIG1        0.0744
     35 C          -6.3793    9.7423   -0.0047 C.ar    1  LIG1        0.0006
     36 S          -5.8667    8.1720   -0.4842 S.2     1  LIG1       -0.0905
     37 H          -7.4251   10.0060   -0.0248 H       1  LIG1        0.0713
     38 O          -2.9343   10.4483    0.6446 O.3     1  LIG1       -0.5038
     39 H          -3.2114   11.3282    0.9605 H       1  LIG1        0.2923
     40 N          -5.2888   11.8695    0.8444 N.pl3   1  LIG1       -0.3547
     41 H          -5.5965   12.5348    0.1417 H       1  LIG1        0.1424
     42 H          -5.8442   11.9948    1.6844 H       1  LIG1        0.1424
@<TRIPOS>BOND
     1    30    29    1
     2     5     1   ar
     3     5     4   ar
     4     6     1    1
     5    28    27    1
     6    27    23    1
     7    29    24    1
     8    29    31    1
     9     1     2   ar
    10    23    24   ar
    11    23    22   ar
    12    24    25   ar
    13    16    12   ar
    14    16    15   ar
    15     4    12    1
    16     4     3   ar
    17    36    32   ar
    18    36    35   ar
    19    12    13   ar
    20    22    15    1
    21    22    26   ar
    22    15    14   ar
    23    25    32    1
    24    25    26   ar
    25    20    19    1
    26     2     3   ar
    27     2     7    1
    28    32    33   ar
    29    13    14   ar
    30    13    17    1
    31    14    19    1
    32    37    35    1
    33    35    34   ar
    34    41    40    1
    35    17    18    1
    36     3     9    1
    37    33    34   ar
    38    33    38    1
    39    34    40    1
    40    19    21    1
    41     7     8    1
    42    38    39    1
    43    40    42    1
    44    10     9    1
    45     9    11    1
