@<TRIPOS>MOLECULE
mol_data/opt/m06hf/geoms/mol2/5fh5fh-5fh5fh-.out
 42 45 0 0 0
SMALL
GASTEIGER

@<TRIPOS>ATOM
      1 C          -1.8766   -2.1751   -0.2621 C.ar    1  LIG1        0.0197
      2 C          -0.5778   -2.0684    0.1092 C.ar    1  LIG1        0.1450
      3 C          -0.1095   -0.7064    0.1648 C.ar    1  LIG1        0.0822
      4 C          -1.0714    0.1915   -0.1934 C.ar    1  LIG1        0.0538
      5 S          -2.5553   -0.6144   -0.5906 S.2     1  LIG1       -0.0904
      6 H          -2.4627   -3.0709   -0.3694 H       1  LIG1        0.0731
      7 O           0.2645   -3.0750    0.4244 O.3     1  LIG1       -0.5044
      8 H           1.1180   -2.6418    0.6035 H       1  LIG1        0.2922
      9 N           1.2350   -0.4846    0.5837 N.pl3   1  LIG1       -0.3542
     10 H           1.7102    0.1343   -0.0719 H       1  LIG1        0.1425
     11 H           1.2554   -0.0408    1.4993 H       1  LIG1        0.1425
     12 C          -0.9287    1.6425   -0.2664 C.ar    1  LIG1        0.0716
     13 C           0.1516    2.3542   -0.6944 C.ar    1  LIG1        0.1533
     14 C          -0.0401    3.7770   -0.6679 C.ar    1  LIG1        0.0828
     15 C          -1.2736    4.1280   -0.2044 C.ar    1  LIG1        0.0544
     16 S          -2.2075    2.7261    0.2160 S.2     1  LIG1       -0.0814
     17 O           1.3202    1.8546   -1.1581 O.3     1  LIG1       -0.5037
     18 H           1.8540    2.6386   -1.3878 H       1  LIG1        0.2923
     19 N           1.0237    4.5955   -1.1473 N.pl3   1  LIG1       -0.3542
     20 H           0.7466    5.0727   -2.0025 H       1  LIG1        0.1425
     21 H           1.2547    5.3089   -0.4562 H       1  LIG1        0.1425
     22 C          -1.7745    5.4866   -0.0335 C.ar    1  LIG1        0.0716
     23 C          -1.0814    6.5700    0.4164 C.ar    1  LIG1        0.1533
     24 C          -1.8648    7.7706    0.4962 C.ar    1  LIG1        0.0828
     25 C          -3.1506    7.5806    0.0824 C.ar    1  LIG1        0.0544
     26 S          -3.4159    5.9398   -0.4141 S.2     1  LIG1       -0.0814
     27 O           0.2117    6.5970    0.8104 O.3     1  LIG1       -0.5037
     28 H           0.3693    7.5207    1.0845 H       1  LIG1        0.2923
     29 N          -1.2279    8.9332    1.0181 N.pl3   1  LIG1       -0.3542
     30 H          -1.3743    9.7273    0.3962 H       1  LIG1        0.1425
     31 H          -1.6153    9.1751    1.9275 H       1  LIG1        0.1425
     32 C          -4.2011    8.5921    0.0253 C.ar    1  LIG1        0.0710
     33 C          -4.0713    9.9031   -0.3256 C.ar    1  LIG1        0.1527
     34 C          -5.3080   10.6365   -0.2866 C.ar    1  LIG1        0.0744
     35 C          -6.3557    9.8560    0.0845 C.ar    1  LIG1        0.0006
     36 S          -5.8627    8.2398    0.4080 S.2     1  LIG1       -0.0905
     37 H          -7.3902   10.1434    0.1874 H       1  LIG1        0.0713
     38 O          -2.9350   10.5266   -0.7128 O.3     1  LIG1       -0.5038
     39 H          -3.2044   11.4384   -0.9299 H       1  LIG1        0.2923
     40 N          -5.2513   12.0163   -0.6561 N.pl3   1  LIG1       -0.3547
     41 H          -5.8348   12.2208   -1.4607 H       1  LIG1        0.1424
     42 H          -5.5142   12.6294    0.1091 H       1  LIG1        0.1424
@<TRIPOS>BOND
     1    20    19    1
     2    41    40    1
     3    18    17    1
     4    17    13    1
     5    19    14    1
     6    19    21    1
     7    39    38    1
     8    38    33    1
     9    13    14   ar
    10    13    12   ar
    11    14    15   ar
    12    40    34    1
    13    40    42    1
    14     5     1   ar
    15     5     4   ar
    16    26    22   ar
    17    26    25   ar
    18     6     1    1
    19    33    34   ar
    20    33    32   ar
    21    34    35   ar
    22    12     4    1
    23    12    16   ar
    24     1     2   ar
    25    15    22    1
    26    15    16   ar
    27     4     3   ar
    28    10     9    1
    29    22    23   ar
    30    32    25    1
    31    32    36   ar
    32    25    24   ar
    33    35    37    1
    34    35    36   ar
    35     2     3   ar
    36     2     7    1
    37     3     9    1
    38    30    29    1
    39    23    24   ar
    40    23    27    1
    41     7     8    1
    42    24    29    1
    43     9    11    1
    44    27    28    1
    45    29    31    1
