@<TRIPOS>MOLECULE
mol_data/opt/m06hf/geoms/mol2/5fh5fh-5fh-5fh-.out
 42 45 0 0 0
SMALL
GASTEIGER

@<TRIPOS>ATOM
      1 C          -1.8697   -2.1745   -0.2899 C.ar    1  LIG1        0.0197
      2 C          -0.5767   -2.0681    0.1009 C.ar    1  LIG1        0.1450
      3 C          -0.1099   -0.7060    0.1672 C.ar    1  LIG1        0.0822
      4 C          -1.0670    0.1923   -0.2027 C.ar    1  LIG1        0.0538
      5 S          -2.5444   -0.6132   -0.6238 S.2     1  LIG1       -0.0904
      6 H          -2.4536   -3.0703   -0.4084 H       1  LIG1        0.0731
      7 O           0.2615   -3.0752    0.4257 O.3     1  LIG1       -0.5044
      8 H           1.1120   -2.6421    0.6183 H       1  LIG1        0.2922
      9 N           1.2281   -0.4846    0.6063 N.pl3   1  LIG1       -0.3542
     10 H           1.7125    0.1364   -0.0405 H       1  LIG1        0.1425
     11 H           1.2350   -0.0438    1.5235 H       1  LIG1        0.1425
     12 C          -0.9241    1.6436   -0.2695 C.ar    1  LIG1        0.0716
     13 C           0.1619    2.3570   -0.6800 C.ar    1  LIG1        0.1533
     14 C          -0.0308    3.7796   -0.6524 C.ar    1  LIG1        0.0828
     15 C          -1.2711    4.1288   -0.2058 C.ar    1  LIG1        0.0544
     16 S          -2.2101    2.7253    0.1974 S.2     1  LIG1       -0.0814
     17 O           1.3374    1.8590   -1.1281 O.3     1  LIG1       -0.5037
     18 H           1.8739    2.6439   -1.3484 H       1  LIG1        0.2923
     19 N           1.0393    4.5998   -1.1145 N.pl3   1  LIG1       -0.3542
     20 H           0.7741    5.0792   -1.9722 H       1  LIG1        0.1425
     21 H           1.2601    5.3115   -0.4183 H       1  LIG1        0.1425
     22 C          -1.7751    5.4867   -0.0383 C.ar    1  LIG1        0.0716
     23 C          -1.0890    6.5693    0.4240 C.ar    1  LIG1        0.1533
     24 C          -1.8743    7.7692    0.4959 C.ar    1  LIG1        0.0828
     25 C          -3.1540    7.5795    0.0636 C.ar    1  LIG1        0.0544
     26 S          -3.4112    5.9399   -0.4410 S.2     1  LIG1       -0.0814
     27 O           0.1983    6.5962    0.8365 O.3     1  LIG1       -0.5037
     28 H           0.3512    7.5193    1.1152 H       1  LIG1        0.2923
     29 N          -1.2456    8.9307    1.0299 N.pl3   1  LIG1       -0.3542
     30 H          -1.3835    9.7265    0.4081 H       1  LIG1        0.1425
     31 H          -1.6460    9.1700    1.9343 H       1  LIG1        0.1425
     32 C          -4.2043    8.5905   -0.0054 C.ar    1  LIG1        0.0710
     33 C          -4.0705    9.9025   -0.3508 C.ar    1  LIG1        0.1527
     34 C          -5.3081   10.6350   -0.3274 C.ar    1  LIG1        0.0744
     35 C          -6.3605    9.8527    0.0266 C.ar    1  LIG1        0.0006
     36 S          -5.8710    8.2359    0.3525 S.2     1  LIG1       -0.0905
     37 H          -7.3965   10.1392    0.1155 H       1  LIG1        0.0713
     38 O          -2.9293   10.5278   -0.7201 O.3     1  LIG1       -0.5038
     39 H          -3.1962   11.4400   -0.9389 H       1  LIG1        0.2923
     40 N          -5.2472   12.0158   -0.6923 N.pl3   1  LIG1       -0.3547
     41 H          -5.8199   12.2222   -1.5041 H       1  LIG1        0.1424
     42 H          -5.5206   12.6267    0.0710 H       1  LIG1        0.1424
@<TRIPOS>BOND
     1    20    19    1
     2    41    40    1
     3    18    17    1
     4    17    13    1
     5    19    14    1
     6    19    21    1
     7    39    38    1
     8    38    33    1
     9    40    34    1
    10    40    42    1
    11    13    14   ar
    12    13    12   ar
    13    14    15   ar
    14     5     1   ar
    15     5     4   ar
    16    26    22   ar
    17    26    25   ar
    18     6     1    1
    19    33    34   ar
    20    33    32   ar
    21    34    35   ar
    22     1     2   ar
    23    12     4    1
    24    12    16   ar
    25    15    22    1
    26    15    16   ar
    27     4     3   ar
    28    10     9    1
    29    22    23   ar
    30    32    25    1
    31    32    36   ar
    32    35    37    1
    33    35    36   ar
    34    25    24   ar
    35     2     3   ar
    36     2     7    1
    37     3     9    1
    38    30    29    1
    39    23    24   ar
    40    23    27    1
    41     7     8    1
    42    24    29    1
    43     9    11    1
    44    27    28    1
    45    29    31    1
