@<TRIPOS>MOLECULE
mol_data/opt/m06hf/geoms/mol2/5fh5fh-.out
 22 23 0 0 0
SMALL
GASTEIGER

@<TRIPOS>ATOM
      1 C          -2.0720   -1.8496    0.5536 C.ar    1  LIG1        0.0197
      2 C          -0.7827   -1.8729    0.1364 C.ar    1  LIG1        0.1450
      3 C          -0.2606   -0.5661   -0.1743 C.ar    1  LIG1        0.0822
      4 C          -1.1728    0.4244    0.0380 C.ar    1  LIG1        0.0537
      5 S          -2.6736   -0.2259    0.6144 S.2     1  LIG1       -0.0904
      6 H          -2.6905   -2.6834    0.8354 H       1  LIG1        0.0731
      7 O           0.0030   -2.9593   -0.0178 O.3     1  LIG1       -0.5044
      8 H           0.8703   -2.6089   -0.2878 H       1  LIG1        0.2922
      9 N           1.0802   -0.4828   -0.6514 N.pl3   1  LIG1       -0.3542
     10 H           1.0966   -0.2276   -1.6361 H       1  LIG1        0.1425
     11 H           1.5966    0.2263   -0.1328 H       1  LIG1        0.1425
     12 C          -0.9645    1.8566   -0.1598 C.ar    1  LIG1        0.0710
     13 C           0.1526    2.5810    0.1282 C.ar    1  LIG1        0.1527
     14 C           0.0337    3.9799   -0.1862 C.ar    1  LIG1        0.0744
     15 C          -1.1854    4.2890   -0.6988 C.ar    1  LIG1        0.0006
     16 S          -2.1913    2.8979   -0.8268 S.2     1  LIG1       -0.0905
     17 H          -1.5443    5.2570   -1.0096 H       1  LIG1        0.0713
     18 O           1.2953    2.1125    0.6824 O.3     1  LIG1       -0.5038
     19 H           1.8595    2.8968    0.8093 H       1  LIG1        0.2923
     20 N           1.1629    4.8073    0.1055 N.pl3   1  LIG1       -0.3547
     21 H           1.5778    5.1975   -0.7347 H       1  LIG1        0.1424
     22 H           0.9295    5.5627    0.7420 H       1  LIG1        0.1424
@<TRIPOS>BOND
     1    10     9    1
     2    17    15    1
     3    16    15   ar
     4    16    12   ar
     5    21    20    1
     6    15    14   ar
     7     9     3    1
     8     9    11    1
     9     8     7    1
    10    14    20    1
    11    14    13   ar
    12     3     4   ar
    13     3     2   ar
    14    12     4    1
    15    12    13   ar
    16     7     2    1
    17     4     5   ar
    18    20    22    1
    19    13    18    1
    20     2     1   ar
    21     1     5   ar
    22     1     6    1
    23    18    19    1
