@<TRIPOS>MOLECULE
mol_data/opt/m06hf/geoms/mol2/5fh5fh5fh-5fh.out
 42 45 0 0 0
SMALL
GASTEIGER

@<TRIPOS>ATOM
      1 C          -1.8668   -2.1742   -0.3144 C.ar    1  LIG1        0.0197
      2 C          -0.5787   -2.0681    0.0924 C.ar    1  LIG1        0.1450
      3 C          -0.1129   -0.7061    0.1656 C.ar    1  LIG1        0.0822
      4 C          -1.0653    0.1926   -0.2153 C.ar    1  LIG1        0.0538
      5 S          -2.5373   -0.6126   -0.6554 S.2     1  LIG1       -0.0904
      6 H          -2.4492   -3.0699   -0.4409 H       1  LIG1        0.0731
      7 O           0.2554   -3.0754    0.4267 O.3     1  LIG1       -0.5044
      8 H           1.1034   -2.6425    0.6303 H       1  LIG1        0.2922
      9 N           1.2196   -0.4850    0.6215 N.pl3   1  LIG1       -0.3542
     10 H           1.7120    0.1366   -0.0187 H       1  LIG1        0.1425
     11 H           1.2152   -0.0450    1.5391 H       1  LIG1        0.1425
     12 C          -0.9216    1.6440   -0.2791 C.ar    1  LIG1        0.0716
     13 C           0.1694    2.3576   -0.6754 C.ar    1  LIG1        0.1533
     14 C          -0.0237    3.7802   -0.6490 C.ar    1  LIG1        0.0828
     15 C          -1.2694    4.1290   -0.2176 C.ar    1  LIG1        0.0544
     16 S          -2.2134    2.7252    0.1727 S.2     1  LIG1       -0.0814
     17 O           1.3503    1.8602   -1.1093 O.3     1  LIG1       -0.5037
     18 H           1.8895    2.6452   -1.3223 H       1  LIG1        0.2923
     19 N           1.0520    4.6009   -1.0970 N.pl3   1  LIG1       -0.3542
     20 H           0.7975    5.0811   -1.9576 H       1  LIG1        0.1425
     21 H           1.2641    5.3120   -0.3975 H       1  LIG1        0.1425
     22 C          -1.7755    5.4868   -0.0552 C.ar    1  LIG1        0.0716
     23 C          -1.0953    6.5690    0.4166 C.ar    1  LIG1        0.1533
     24 C          -1.8814    7.7689    0.4797 C.ar    1  LIG1        0.0828
     25 C          -3.1556    7.5796    0.0314 C.ar    1  LIG1        0.0544
     26 S          -3.4065    5.9403   -0.4778 S.2     1  LIG1       -0.0814
     27 O           0.1868    6.5956    0.8450 O.3     1  LIG1       -0.5037
     28 H           0.3362    7.5184    1.1264 H       1  LIG1        0.2923
     29 N          -1.2594    8.9299    1.0225 N.pl3   1  LIG1       -0.3542
     30 H          -1.3896    9.7262    0.3998 H       1  LIG1        0.1425
     31 H          -1.6711    9.1684    1.9221 H       1  LIG1        0.1425
     32 C          -4.2050    8.5905   -0.0498 C.ar    1  LIG1        0.0710
     33 C          -4.0669    9.9029   -0.3924 C.ar    1  LIG1        0.1527
     34 C          -5.3048   10.6354   -0.3837 C.ar    1  LIG1        0.0744
     35 C          -6.3615    9.8527   -0.0436 C.ar    1  LIG1        0.0006
     36 S          -5.8760    8.2357    0.2871 S.2     1  LIG1       -0.0905
     37 H          -7.3985   10.1391    0.0328 H       1  LIG1        0.0713
     38 O          -2.9212   10.5285   -0.7469 O.3     1  LIG1       -0.5038
     39 H          -3.1855   11.4408   -0.9682 H       1  LIG1        0.2923
     40 N          -5.2393   12.0164   -0.7467 N.pl3   1  LIG1       -0.3547
     41 H          -5.8019   12.2236   -1.5654 H       1  LIG1        0.1424
     42 H          -5.5222   12.6267    0.0137 H       1  LIG1        0.1424
@<TRIPOS>BOND
     1    20    19    1
     2    41    40    1
     3    18    17    1
     4    17    13    1
     5    19    14    1
     6    19    21    1
     7    39    38    1
     8    38    33    1
     9    40    34    1
    10    40    42    1
    11    13    14   ar
    12    13    12   ar
    13     5     1   ar
    14     5     4   ar
    15    14    15   ar
    16    26    22   ar
    17    26    25   ar
    18     6     1    1
    19    33    34   ar
    20    33    32   ar
    21    34    35   ar
    22     1     2   ar
    23    12     4    1
    24    12    16   ar
    25    15    22    1
    26    15    16   ar
    27     4     3   ar
    28    22    23   ar
    29    32    25    1
    30    32    36   ar
    31    35    37    1
    32    35    36   ar
    33    10     9    1
    34    25    24   ar
    35     2     3   ar
    36     2     7    1
    37     3     9    1
    38    30    29    1
    39    23    24   ar
    40    23    27    1
    41     7     8    1
    42    24    29    1
    43     9    11    1
    44    27    28    1
    45    29    31    1
