@<TRIPOS>MOLECULE
mol_data/opt/m06hf/geoms/mol2/5fh5fh5fh5fh-.out
 42 45 0 0 0
SMALL
GASTEIGER

@<TRIPOS>ATOM
      1 C          -1.6143   -1.9177   -1.6198 C.ar    1  LIG1        0.0197
      2 C          -0.7422   -2.0074   -0.5869 C.ar    1  LIG1        0.1450
      3 C          -0.3630   -0.7262   -0.0465 C.ar    1  LIG1        0.0822
      4 C          -0.9495    0.3128   -0.7072 C.ar    1  LIG1        0.0538
      5 S          -1.9710   -0.2622   -1.9868 S.2     1  LIG1       -0.0904
      6 H          -2.0532   -2.7208   -2.1853 H       1  LIG1        0.0731
      7 O          -0.2354   -3.1353   -0.0451 O.3     1  LIG1       -0.5044
      8 H           0.3965   -2.8287    0.6297 H       1  LIG1        0.2922
      9 N           0.5294   -0.7139    1.0649 N.pl3   1  LIG1       -0.3542
     10 H           1.2842   -0.0489    0.9038 H       1  LIG1        0.1425
     11 H           0.0424   -0.4372    1.9141 H       1  LIG1        0.1425
     12 C          -0.7740    1.7359   -0.4347 C.ar    1  LIG1        0.0716
     13 C           0.3656    2.3812   -0.0607 C.ar    1  LIG1        0.1533
     14 C           0.1996    3.7944    0.1359 C.ar    1  LIG1        0.0828
     15 C          -1.0729    4.2106   -0.1234 C.ar    1  LIG1        0.0544
     16 S          -2.0849    2.8771   -0.5849 S.2     1  LIG1       -0.0814
     17 O           1.5885    1.8305    0.1192 O.3     1  LIG1       -0.5037
     18 H           2.1771    2.5858    0.3073 H       1  LIG1        0.2923
     19 N           1.3443    4.5387    0.5434 N.pl3   1  LIG1       -0.3542
     20 H           1.4675    5.3534   -0.0573 H       1  LIG1        0.1425
     21 H           1.2395    4.8676    1.5004 H       1  LIG1        0.1425
     22 C          -1.5703    5.5808   -0.0695 C.ar    1  LIG1        0.0716
     23 C          -0.9218    6.7138   -0.4594 C.ar    1  LIG1        0.1533
     24 C          -1.6907    7.9145   -0.2886 C.ar    1  LIG1        0.0828
     25 C          -2.9362    7.6665    0.2082 C.ar    1  LIG1        0.0544
     26 S          -3.1754    5.9730    0.4930 S.2     1  LIG1       -0.0814
     27 O           0.3213    6.7930   -0.9856 O.3     1  LIG1       -0.5037
     28 H           0.4357    7.7326   -1.2226 H       1  LIG1        0.2923
     29 N          -1.0789    9.1451   -0.6629 N.pl3   1  LIG1       -0.3542
     30 H          -1.6983    9.6758   -1.2745 H       1  LIG1        0.1425
     31 H          -0.8800    9.7146    0.1563 H       1  LIG1        0.1425
     32 C          -3.9819    8.6519    0.4650 C.ar    1  LIG1        0.0710
     33 C          -4.3058    9.7322   -0.2988 C.ar    1  LIG1        0.1527
     34 C          -5.4052   10.5004    0.2221 C.ar    1  LIG1        0.0744
     35 C          -5.8938    9.9779    1.3767 C.ar    1  LIG1        0.0006
     36 S          -5.0277    8.5702    1.8560 S.2     1  LIG1       -0.0905
     37 H          -6.7150   10.3449    1.9720 H       1  LIG1        0.0713
     38 O          -3.7210   10.1018   -1.4604 O.3     1  LIG1       -0.5038
     39 H          -4.2200   10.8837   -1.7608 H       1  LIG1        0.2923
     40 N          -5.8161   11.6365   -0.5416 N.pl3   1  LIG1       -0.3547
     41 H          -6.7695   11.5451   -0.8773 H       1  LIG1        0.1424
     42 H          -5.7314   12.5024   -0.0192 H       1  LIG1        0.1424
@<TRIPOS>BOND
     1     6     1    1
     2     5     1   ar
     3     5     4   ar
     4    39    38    1
     5     1     2   ar
     6    38    33    1
     7    30    29    1
     8    28    27    1
     9    27    23    1
    10    41    40    1
    11     4    12    1
    12     4     3   ar
    13    29    24    1
    14    29    31    1
    15     2     3   ar
    16     2     7    1
    17    16    12   ar
    18    16    15   ar
    19    40    42    1
    20    40    34    1
    21    23    24   ar
    22    23    22   ar
    23    12    13   ar
    24    33    34   ar
    25    33    32   ar
    26    24    25   ar
    27    15    22    1
    28    15    14   ar
    29    22    26   ar
    30    13    17    1
    31    13    14   ar
    32    20    19    1
    33     3     9    1
    34     7     8    1
    35    17    18    1
    36    14    19    1
    37    25    32    1
    38    25    26   ar
    39    34    35   ar
    40    32    36   ar
    41    19    21    1
    42    10     9    1
    43     9    11    1
    44    35    36   ar
    45    35    37    1
