@<TRIPOS>MOLECULE
mol_data/opt/m06hf/geoms/mol2/5fh5fh.out
 22 23 0 0 0
SMALL
GASTEIGER

@<TRIPOS>ATOM
      1 C          -2.0757   -1.8499    0.5452 C.ar    1  LIG1        0.0197
      2 C          -0.7837   -1.8728    0.1363 C.ar    1  LIG1        0.1450
      3 C          -0.2596   -0.5657   -0.1697 C.ar    1  LIG1        0.0822
      4 C          -1.1732    0.4246    0.0376 C.ar    1  LIG1        0.0537
      5 S          -2.6777   -0.2263    0.6036 S.2     1  LIG1       -0.0904
      6 H          -2.6959   -2.6841    0.8222 H       1  LIG1        0.0731
      7 O           0.0031   -2.9590   -0.0137 O.3     1  LIG1       -0.5044
      8 H           0.8721   -2.6084   -0.2778 H       1  LIG1        0.2922
      9 N           1.0842   -0.4819   -0.6379 N.pl3   1  LIG1       -0.3542
     10 H           1.1071   -0.2258   -1.6222 H       1  LIG1        0.1425
     11 H           1.5973    0.2267   -0.1153 H       1  LIG1        0.1425
     12 C          -0.9636    1.8570   -0.1574 C.ar    1  LIG1        0.0710
     13 C           0.1515    2.5812    0.1386 C.ar    1  LIG1        0.1527
     14 C           0.0345    3.9803   -0.1753 C.ar    1  LIG1        0.0744
     15 C          -1.1811    4.2898   -0.6955 C.ar    1  LIG1        0.0006
     16 S          -2.1862    2.8989   -0.8314 S.2     1  LIG1       -0.0905
     17 H          -1.5381    5.2582   -1.0078 H       1  LIG1        0.0713
     18 O           1.2905    2.1121    0.6997 O.3     1  LIG1       -0.5038
     19 H           1.8538    2.8964    0.8310 H       1  LIG1        0.2923
     20 N           1.1618    4.8075    0.1246 N.pl3   1  LIG1       -0.3547
     21 H           1.5822    5.1984   -0.7126 H       1  LIG1        0.1424
     22 H           0.9242    5.5623    0.7602 H       1  LIG1        0.1424
@<TRIPOS>BOND
     1    10     9    1
     2    17    15    1
     3    16    15   ar
     4    16    12   ar
     5    21    20    1
     6    15    14   ar
     7     9     3    1
     8     9    11    1
     9     8     7    1
    10    14    20    1
    11    14    13   ar
    12     3     4   ar
    13     3     2   ar
    14    12     4    1
    15    12    13   ar
    16     7     2    1
    17     4     5   ar
    18    20    22    1
    19     2     1   ar
    20    13    18    1
    21     1     5   ar
    22     1     6    1
    23    18    19    1
