@<TRIPOS>MOLECULE
mol_data/opt/m06hf/geoms/mol2/5fh5fh-5fh.out
 32 34 0 0 0
SMALL
GASTEIGER

@<TRIPOS>ATOM
      1 C          -1.9542   -1.9299   -0.9852 C.ar    1  LIG1        0.0197
      2 C          -0.8072   -1.9634   -0.2646 C.ar    1  LIG1        0.1450
      3 C          -0.3174   -0.6551    0.0904 C.ar    1  LIG1        0.0822
      4 C          -1.1070    0.3461   -0.3921 C.ar    1  LIG1        0.0538
      5 S          -2.4529   -0.2948   -1.2788 S.2     1  LIG1       -0.0904
      6 H          -2.5231   -2.7620   -1.3613 H       1  LIG1        0.0731
      7 O          -0.1298   -3.0597    0.1368 O.3     1  LIG1       -0.5044
      8 H           0.6602   -2.7153    0.5898 H       1  LIG1        0.2922
      9 N           0.8669   -0.5820    0.8803 N.pl3   1  LIG1       -0.3542
     10 H           1.5328    0.0649    0.4600 H       1  LIG1        0.1425
     11 H           0.6515   -0.2440    1.8154 H       1  LIG1        0.1425
     12 C          -0.8886    1.7807   -0.2337 C.ar    1  LIG1        0.0716
     13 C           0.2971    2.4509   -0.2583 C.ar    1  LIG1        0.1533
     14 C           0.1720    3.8675   -0.0548 C.ar    1  LIG1        0.0828
     15 C          -1.1259    4.2589    0.0929 C.ar    1  LIG1        0.0544
     16 S          -2.2029    2.9012    0.0142 S.2     1  LIG1       -0.0814
     17 O           1.5235    1.9190   -0.4653 O.3     1  LIG1       -0.5037
     18 H           2.1277    2.6849   -0.4906 H       1  LIG1        0.2923
     19 N           1.3698    4.6388   -0.0554 N.pl3   1  LIG1       -0.3542
     20 H           1.2789    5.4339   -0.6867 H       1  LIG1        0.1425
     21 H           1.5740    4.9945    0.8754 H       1  LIG1        0.1425
     22 C          -1.6097    5.6266    0.2583 C.ar    1  LIG1        0.0710
     23 C          -1.1504    6.7472   -0.3652 C.ar    1  LIG1        0.1527
     24 C          -1.8629    7.9433   -0.0037 C.ar    1  LIG1        0.0744
     25 C          -2.8577    7.6969    0.8877 C.ar    1  LIG1        0.0006
     26 S          -2.9338    6.0321    1.3126 S.2     1  LIG1       -0.0905
     27 H          -3.5479    8.4049    1.3182 H       1  LIG1        0.0713
     28 O          -0.1475    6.8110   -1.2704 O.3     1  LIG1       -0.5038
     29 H          -0.1093    7.7449   -1.5470 H       1  LIG1        0.2923
     30 N          -1.4502    9.1575   -0.6358 N.pl3   1  LIG1       -0.3547
     31 H          -2.1943    9.5708   -1.1888 H       1  LIG1        0.1424
     32 H          -1.1152    9.8434    0.0335 H       1  LIG1        0.1424
@<TRIPOS>BOND
     1    29    28    1
     2     6     1    1
     3     5     1   ar
     4     5     4   ar
     5    28    23    1
     6    31    30    1
     7     1     2   ar
     8    20    19    1
     9    30    24    1
    10    30    32    1
    11    18    17    1
    12    17    13    1
    13     4    12    1
    14     4     3   ar
    15    23    24   ar
    16    23    22   ar
    17     2     3   ar
    18     2     7    1
    19    13    12   ar
    20    13    14   ar
    21    12    16   ar
    22    19    14    1
    23    19    21    1
    24    14    15   ar
    25    24    25   ar
    26    16    15   ar
    27     3     9    1
    28    15    22    1
    29     7     8    1
    30    22    26   ar
    31    10     9    1
    32     9    11    1
    33    25    26   ar
    34    25    27    1
