@<TRIPOS>MOLECULE
mol_data/opt/m06hf/geoms/mol2/5fh5fh5fh-.out
 32 34 0 0 0
SMALL
GASTEIGER

@<TRIPOS>ATOM
      1 C          -1.9407   -1.9305   -1.0007 C.ar    1  LIG1        0.0197
      2 C          -0.8029   -1.9632   -0.2655 C.ar    1  LIG1        0.1450
      3 C          -0.3181   -0.6546    0.0950 C.ar    1  LIG1        0.0822
      4 C          -1.1017    0.3462   -0.3982 C.ar    1  LIG1        0.0538
      5 S          -2.4360   -0.2957   -1.3017 S.2     1  LIG1       -0.0904
      6 H          -2.5046   -2.7629   -1.3835 H       1  LIG1        0.0731
      7 O          -0.1304   -3.0592    0.1450 O.3     1  LIG1       -0.5044
      8 H           0.6537   -2.7143    0.6079 H       1  LIG1        0.2922
      9 N           0.8559   -0.5808    0.9000 N.pl3   1  LIG1       -0.3542
     10 H           1.5270    0.0662    0.4881 H       1  LIG1        0.1425
     11 H           0.6285   -0.2426    1.8322 H       1  LIG1        0.1425
     12 C          -0.8858    1.7809   -0.2379 C.ar    1  LIG1        0.0716
     13 C           0.3000    2.4515   -0.2477 C.ar    1  LIG1        0.1533
     14 C           0.1717    3.8682   -0.0469 C.ar    1  LIG1        0.0828
     15 C          -1.1281    4.2592    0.0837 C.ar    1  LIG1        0.0544
     16 S          -2.2035    2.9011   -0.0079 S.2     1  LIG1       -0.0814
     17 O           1.5291    1.9198   -0.4385 O.3     1  LIG1       -0.5037
     18 H           2.1333    2.6859   -0.4566 H       1  LIG1        0.2923
     19 N           1.3693    4.6398   -0.0325 N.pl3   1  LIG1       -0.3542
     20 H           1.2864    5.4346   -0.6652 H       1  LIG1        0.1425
     21 H           1.5613    4.9960    0.9007 H       1  LIG1        0.1425
     22 C          -1.6146    5.6268    0.2420 C.ar    1  LIG1        0.0710
     23 C          -1.1473    6.7475   -0.3755 C.ar    1  LIG1        0.1527
     24 C          -1.8651    7.9434   -0.0241 C.ar    1  LIG1        0.0744
     25 C          -2.8718    7.6968    0.8538 C.ar    1  LIG1        0.0006
     26 S          -2.9530    6.0321    1.2781 S.2     1  LIG1       -0.0905
     27 H          -3.5680    8.4047    1.2747 H       1  LIG1        0.0713
     28 O          -0.1321    6.8115   -1.2671 O.3     1  LIG1       -0.5038
     29 H          -0.0906    7.7453   -1.5432 H       1  LIG1        0.2923
     30 N          -1.4444    9.1575   -0.6510 N.pl3   1  LIG1       -0.3547
     31 H          -2.1811    9.5702   -1.2144 H       1  LIG1        0.1424
     32 H          -1.1192    9.8439    0.0225 H       1  LIG1        0.1424
@<TRIPOS>BOND
     1    29    28    1
     2     6     1    1
     3     5     1   ar
     4     5     4   ar
     5    28    23    1
     6    31    30    1
     7     1     2   ar
     8    20    19    1
     9    30    24    1
    10    30    32    1
    11    18    17    1
    12    17    13    1
    13     4    12    1
    14     4     3   ar
    15    23    24   ar
    16    23    22   ar
    17     2     3   ar
    18     2     7    1
    19    13    12   ar
    20    13    14   ar
    21    12    16   ar
    22    14    19    1
    23    14    15   ar
    24    19    21    1
    25    24    25   ar
    26    16    15   ar
    27    15    22    1
    28     3     9    1
    29     7     8    1
    30    22    26   ar
    31    10     9    1
    32    25    27    1
    33    25    26   ar
    34     9    11    1
