@<TRIPOS>MOLECULE
mol_data/opt/m06hf/geoms/mol2/5fh5fh-5fh5fh.out
 42 45 0 0 0
SMALL
GASTEIGER

@<TRIPOS>ATOM
      1 C          -1.9849   -2.1172   -0.0334 C.ar    1  LIG1        0.0197
      2 C          -0.7033   -2.0200    0.3949 C.ar    1  LIG1        0.1450
      3 C          -0.2009   -0.6688    0.3921 C.ar    1  LIG1        0.0822
      4 C          -1.1201    0.2294   -0.0636 C.ar    1  LIG1        0.0538
      5 S          -2.6045   -0.5627   -0.4872 S.2     1  LIG1       -0.0904
      6 H          -2.5905   -3.0030   -0.1155 H       1  LIG1        0.0731
      7 O           0.0965   -3.0251    0.8099 O.3     1  LIG1       -0.5044
      8 H           0.9521   -2.6009    1.0023 H       1  LIG1        0.2922
      9 N           1.1300   -0.4552    0.8554 N.pl3   1  LIG1       -0.3542
     10 H           1.6501    0.1072    0.1834 H       1  LIG1        0.1425
     11 H           1.1259    0.0422    1.7427 H       1  LIG1        0.1425
     12 C          -0.9296    1.6676   -0.2227 C.ar    1  LIG1        0.0716
     13 C           0.1859    2.3158   -0.6587 C.ar    1  LIG1        0.1533
     14 C           0.0414    3.7427   -0.7292 C.ar    1  LIG1        0.0828
     15 C          -1.1932    4.1616   -0.3277 C.ar    1  LIG1        0.0544
     16 S          -2.1823    2.8213    0.1547 S.2     1  LIG1       -0.0814
     17 O           1.3507    1.7509   -1.0518 O.3     1  LIG1       -0.5037
     18 H           1.9187    2.5032   -1.3049 H       1  LIG1        0.2923
     19 N           1.1453    4.4903   -1.2330 N.pl3   1  LIG1       -0.3542
     20 H           0.9185    4.8929   -2.1397 H       1  LIG1        0.1425
     21 H           1.3699    5.2571   -0.5999 H       1  LIG1        0.1425
     22 C          -1.6648    5.5408   -0.2793 C.ar    1  LIG1        0.0716
     23 C          -0.9557    6.6486    0.0764 C.ar    1  LIG1        0.1533
     24 C          -1.7049    7.8711   -0.0063 C.ar    1  LIG1        0.0828
     25 C          -2.9945    7.6643   -0.3987 C.ar    1  LIG1        0.0544
     26 S          -3.2993    5.9832   -0.6944 S.2     1  LIG1       -0.0814
     27 O           0.3302    6.6897    0.4930 O.3     1  LIG1       -0.5037
     28 H           0.4862    7.6241    0.7289 H       1  LIG1        0.2923
     29 N          -1.0275    9.0787    0.3277 N.pl3   1  LIG1       -0.3542
     30 H          -0.8746    9.6488   -0.5010 H       1  LIG1        0.1425
     31 H          -1.5795    9.6231    0.9896 H       1  LIG1        0.1425
     32 C          -4.0310    8.6799   -0.5577 C.ar    1  LIG1        0.0710
     33 C          -4.2512    9.7712    0.2279 C.ar    1  LIG1        0.1527
     34 C          -5.3715   10.5694   -0.1934 C.ar    1  LIG1        0.0744
     35 C          -5.9851   10.0532   -1.2897 C.ar    1  LIG1        0.0006
     36 S          -5.2111    8.6165   -1.8357 S.2     1  LIG1       -0.0905
     37 H          -6.8492   10.4403   -1.8064 H       1  LIG1        0.0713
     38 O          -3.5523   10.1244    1.3306 O.3     1  LIG1       -0.5038
     39 H          -4.0133   10.9052    1.6893 H       1  LIG1        0.2923
     40 N          -5.6788   11.7197    0.5973 N.pl3   1  LIG1       -0.3547
     41 H          -5.5447   12.5852    0.0842 H       1  LIG1        0.1424
     42 H          -6.6268   11.6926    0.9579 H       1  LIG1        0.1424
@<TRIPOS>BOND
     1    20    19    1
     2    36    35   ar
     3    36    32   ar
     4    37    35    1
     5    18    17    1
     6    35    34   ar
     7    19    14    1
     8    19    21    1
     9    17    13    1
    10    14    13   ar
    11    14    15   ar
    12    26    25   ar
    13    26    22   ar
    14    13    12   ar
    15    32    25    1
    16    32    33   ar
    17    30    29    1
    18     5     4   ar
    19     5     1   ar
    20    25    24   ar
    21    15    22    1
    22    15    16   ar
    23    22    23   ar
    24    12     4    1
    25    12    16   ar
    26    34    33   ar
    27    34    40    1
    28     6     1    1
    29     4     3   ar
    30     1     2   ar
    31    24    23   ar
    32    24    29    1
    33    23    27    1
    34    41    40    1
    35    10     9    1
    36    33    38    1
    37    29    31    1
    38     3     2   ar
    39     3     9    1
    40     2     7    1
    41    27    28    1
    42    40    42    1
    43     7     8    1
    44     9    11    1
    45    38    39    1
