@<TRIPOS>MOLECULE
mol_data/opt/m06hf/geoms/mol2/5fh5fh-5fh-.out
 32 34 0 0 0
SMALL
GASTEIGER

@<TRIPOS>ATOM
      1 C          -1.9899   -2.0451   -0.3045 C.ar    1  LIG1        0.0197
      2 C          -0.7506   -1.9428    0.2331 C.ar    1  LIG1        0.1450
      3 C          -0.2609   -0.5882    0.2847 C.ar    1  LIG1        0.0822
      4 C          -1.1460    0.3062   -0.2398 C.ar    1  LIG1        0.0538
      5 S          -2.5800   -0.4913   -0.7987 S.2     1  LIG1       -0.0904
      6 H          -2.5774   -2.9352   -0.4470 H       1  LIG1        0.0731
      7 O           0.0143   -2.9467    0.7116 O.3     1  LIG1       -0.5044
      8 H           0.8493   -2.5226    0.9776 H       1  LIG1        0.2922
      9 N           1.0221   -0.3663    0.8641 N.pl3   1  LIG1       -0.3542
     10 H           1.5902    0.2150    0.2492 H       1  LIG1        0.1425
     11 H           0.9344    0.1139    1.7568 H       1  LIG1        0.1425
     12 C          -0.9582    1.7497   -0.3516 C.ar    1  LIG1        0.0716
     13 C           0.1829    2.4178   -0.6772 C.ar    1  LIG1        0.1533
     14 C           0.0334    3.8456   -0.7121 C.ar    1  LIG1        0.0828
     15 C          -1.2306    4.2439   -0.3918 C.ar    1  LIG1        0.0544
     16 S          -2.2442    2.8832   -0.0332 S.2     1  LIG1       -0.0814
     17 O           1.3803    1.8699   -0.9880 O.3     1  LIG1       -0.5037
     18 H           1.9656    2.6302   -1.1654 H       1  LIG1        0.2923
     19 N           1.1689    4.6164   -1.0967 N.pl3   1  LIG1       -0.3542
     20 H           1.0200    5.0415   -2.0090 H       1  LIG1        0.1425
     21 H           1.3324    5.3648   -0.4244 H       1  LIG1        0.1425
     22 C          -1.7144    5.6186   -0.3106 C.ar    1  LIG1        0.0710
     23 C          -1.0464    6.7044    0.1706 C.ar    1  LIG1        0.1527
     24 C          -1.8159    7.9194    0.1344 C.ar    1  LIG1        0.0744
     25 C          -3.0613    7.7227   -0.3697 C.ar    1  LIG1        0.0006
     26 S          -3.3131    6.0818   -0.8233 S.2     1  LIG1       -0.0905
     27 H          -3.8431    8.4539   -0.5024 H       1  LIG1        0.0713
     28 O           0.2072    6.7208    0.6793 O.3     1  LIG1       -0.5038
     29 H           0.3518    7.6385    0.9746 H       1  LIG1        0.2923
     30 N          -1.1861    9.0980    0.6424 N.pl3   1  LIG1       -0.3547
     31 H          -1.0682    9.8077   -0.0741 H       1  LIG1        0.1424
     32 H          -1.6973    9.4974    1.4227 H       1  LIG1        0.1424
@<TRIPOS>BOND
     1    20    19    1
     2    18    17    1
     3    19    14    1
     4    19    21    1
     5    17    13    1
     6    26    25   ar
     7    26    22   ar
     8     5     1   ar
     9     5     4   ar
    10    14    13   ar
    11    14    15   ar
    12    13    12   ar
    13    27    25    1
    14     6     1    1
    15    15    22    1
    16    15    16   ar
    17    25    24   ar
    18    12     4    1
    19    12    16   ar
    20    22    23   ar
    21     1     2   ar
    22     4     3   ar
    23    31    30    1
    24    24    23   ar
    25    24    30    1
    26    23    28    1
    27     2     3   ar
    28     2     7    1
    29    10     9    1
    30     3     9    1
    31    30    32    1
    32    28    29    1
    33     7     8    1
    34     9    11    1
