@<TRIPOS>MOLECULE
mol_data/opt/m06hf/geoms/mol2/5fh5fh5fh.out
 32 34 0 0 0
SMALL
GASTEIGER

@<TRIPOS>ATOM
      1 C          -1.9845   -2.0398    0.2564 C.ar    1  LIG1        0.0197
      2 C          -0.7336   -1.9503   -0.2562 C.ar    1  LIG1        0.1450
      3 C          -0.2453   -0.5966   -0.3364 C.ar    1  LIG1        0.0822
      4 C          -1.1435    0.3107    0.1418 C.ar    1  LIG1        0.0538
      5 S          -2.5883   -0.4736    0.6916 S.2     1  LIG1       -0.0904
      6 H          -2.5736   -2.9267    0.4117 H       1  LIG1        0.0731
      7 O           0.0436   -2.9659   -0.6877 O.3     1  LIG1       -0.5044
      8 H           0.8836   -2.5478   -0.9474 H       1  LIG1        0.2922
      9 N           1.0500   -0.3888   -0.8936 N.pl3   1  LIG1       -0.3542
     10 H           0.9812    0.0646   -1.8018 H       1  LIG1        0.1425
     11 H           1.6032    0.2119   -0.2837 H       1  LIG1        0.1425
     12 C          -0.9609    1.7573    0.2155 C.ar    1  LIG1        0.0716
     13 C           0.1716    2.4375    0.5463 C.ar    1  LIG1        0.1533
     14 C           0.0186    3.8653    0.5363 C.ar    1  LIG1        0.0828
     15 C          -1.2388    4.2509    0.1773 C.ar    1  LIG1        0.0544
     16 S          -2.2417    2.8777   -0.1635 S.2     1  LIG1       -0.0814
     17 O           1.3630    1.9019    0.8990 O.3     1  LIG1       -0.5037
     18 H           1.9427    2.6685    1.0674 H       1  LIG1        0.2923
     19 N           1.1440    4.6498    0.9231 N.pl3   1  LIG1       -0.3542
     20 H           1.3216    5.3780    0.2324 H       1  LIG1        0.1425
     21 H           0.9736    5.1021    1.8185 H       1  LIG1        0.1425
     22 C          -1.7234    5.6214    0.0452 C.ar    1  LIG1        0.0710
     23 C          -1.0469    6.6944   -0.4528 C.ar    1  LIG1        0.1527
     24 C          -1.8194    7.9079   -0.4693 C.ar    1  LIG1        0.0744
     25 C          -3.0754    7.7228    0.0125 C.ar    1  LIG1        0.0006
     26 S          -3.3340    6.0953    0.5086 S.2     1  LIG1       -0.0905
     27 H          -3.8613    8.4555    0.1063 H       1  LIG1        0.0713
     28 O           0.2175    6.6989   -0.9343 O.3     1  LIG1       -0.5038
     29 H           0.3663    7.6076   -1.2546 H       1  LIG1        0.2923
     30 N          -1.1809    9.0726   -0.9980 N.pl3   1  LIG1       -0.3547
     31 H          -1.6772    9.4497   -1.7987 H       1  LIG1        0.1424
     32 H          -1.0766    9.8020   -0.2994 H       1  LIG1        0.1424
@<TRIPOS>BOND
     1    10     9    1
     2    31    30    1
     3    29    28    1
     4    30    24    1
     5    30    32    1
     6     8     7    1
     7    28    23    1
     8     9     3    1
     9     9    11    1
    10     7     2    1
    11    24    23   ar
    12    24    25   ar
    13    23    22   ar
    14     3     2   ar
    15     3     4   ar
    16     2     1   ar
    17    16    15   ar
    18    16    12   ar
    19    25    27    1
    20    25    26   ar
    21    22    15    1
    22    22    26   ar
    23     4    12    1
    24     4     5   ar
    25    15    14   ar
    26    12    13   ar
    27    20    19    1
    28     1     6    1
    29     1     5   ar
    30    14    13   ar
    31    14    19    1
    32    13    17    1
    33    17    18    1
    34    19    21    1
