@<TRIPOS>MOLECULE
mol_data/opt/m06hf/geoms/mol2/5fi.out
 13 13 0 0 0
SMALL
GASTEIGER

@<TRIPOS>ATOM
      1 C          -2.1441   -1.7428   -0.0290 C.ar    1  LIG1        0.0174
      2 C          -0.7888   -1.6985   -0.0518 C.ar    1  LIG1        0.1267
      3 C          -0.2529   -0.3594    0.0235 C.ar    1  LIG1       -0.0020
      4 C          -1.2511    0.5586    0.1009 C.ar    1  LIG1       -0.0179
      5 S          -2.8151   -0.1581    0.0846 S.2     1  LIG1       -0.1011
      6 H          -2.7652   -2.6206   -0.0733 H       1  LIG1        0.0730
      7 H          -1.1456    1.6298    0.1673 H       1  LIG1        0.0697
      8 O          -0.0189   -2.8197   -0.1379 O.3     1  LIG1       -0.5060
      9 H           0.9141   -2.5846   -0.1402 H       1  LIG1        0.2922
     10 C           1.2289   -0.0631    0.0145 C.3     1  LIG1       -0.0357
     11 H           1.3950    1.0110    0.0798 H       1  LIG1        0.0279
     12 H           1.6912   -0.4230   -0.9082 H       1  LIG1        0.0279
     13 H           1.7247   -0.5362    0.8659 H       1  LIG1        0.0279
@<TRIPOS>BOND
     1    12    10    1
     2     9     8    1
     3     8     2    1
     4     6     1    1
     5     2     1   ar
     6     2     3   ar
     7     1     5   ar
     8    10     3    1
     9    10    11    1
    10    10    13    1
    11     3     4   ar
    12     5     4   ar
    13     4     7    1
