@<TRIPOS>MOLECULE
mol_data/opt/m06hf/geoms/mol2/5fi5fi-5fi-5fi-.out
 46 49 0 0 0
SMALL
GASTEIGER

@<TRIPOS>ATOM
      1 C          -1.3696   -1.7094   -1.9412 C.ar    1  LIG1        0.0180
      2 C          -0.7259   -1.8571   -0.7570 C.ar    1  LIG1        0.1273
      3 C          -0.4195   -0.6119   -0.0964 C.ar    1  LIG1        0.0064
      4 C          -0.8347    0.4519   -0.8432 C.ar    1  LIG1        0.0359
      5 S          -1.6075   -0.0439   -2.3159 S.2     1  LIG1       -0.0920
      6 H          -1.7063   -2.4941   -2.5969 H       1  LIG1        0.0730
      7 O          -0.4449   -3.0791   -0.2152 O.3     1  LIG1       -0.5060
      8 H           0.3364   -3.0125    0.3440 H       1  LIG1        0.2922
      9 C           0.2315   -0.5441    1.2631 C.3     1  LIG1       -0.0351
     10 H           0.0095    0.4147    1.7301 H       1  LIG1        0.0279
     11 H           1.3171   -0.6296    1.1810 H       1  LIG1        0.0279
     12 H          -0.1557   -1.3451    1.8969 H       1  LIG1        0.0279
     13 C          -0.6824    1.8699   -0.5176 C.ar    1  LIG1        0.0685
     14 C           0.4482    2.4963   -0.0812 C.ar    1  LIG1        0.1356
     15 C           0.2906    3.9051    0.1660 C.ar    1  LIG1        0.0070
     16 C          -0.9768    4.3150   -0.1339 C.ar    1  LIG1        0.0365
     17 S          -1.9844    3.0050   -0.6680 S.2     1  LIG1       -0.0831
     18 O           1.6194    1.8280    0.1366 O.3     1  LIG1       -0.5053
     19 H           2.3608    2.3918   -0.1116 H       1  LIG1        0.2922
     20 C           1.3982    4.7649    0.7242 C.3     1  LIG1       -0.0351
     21 H           0.9704    5.6284    1.2326 H       1  LIG1        0.0279
     22 H           2.0444    5.1371   -0.0736 H       1  LIG1        0.0279
     23 H           1.9863    4.1844    1.4377 H       1  LIG1        0.0279
     24 C          -1.5055    5.6747   -0.0337 C.ar    1  LIG1        0.0685
     25 C          -0.9080    6.8221   -0.4682 C.ar    1  LIG1        0.1356
     26 C          -1.6625    8.0194   -0.2096 C.ar    1  LIG1        0.0070
     27 C          -2.8519    7.7262    0.3920 C.ar    1  LIG1        0.0365
     28 S          -3.0454    6.0281    0.6810 S.2     1  LIG1       -0.0831
     29 O           0.3182    6.8275   -1.0665 O.3     1  LIG1       -0.5053
     30 H           0.3549    7.5323   -1.7231 H       1  LIG1        0.2922
     31 C          -1.1457    9.3971   -0.5434 C.3     1  LIG1       -0.0351
     32 H          -1.6457   10.1377    0.0795 H       1  LIG1        0.0279
     33 H          -1.3488    9.6492   -1.5862 H       1  LIG1        0.0279
     34 H          -0.0710    9.4400   -0.3556 H       1  LIG1        0.0279
     35 C          -3.9018    8.6686    0.7792 C.ar    1  LIG1        0.0679
     36 C          -4.4188    9.6808    0.0240 C.ar    1  LIG1        0.1350
     37 C          -5.4691   10.4212    0.6762 C.ar    1  LIG1       -0.0014
     38 C          -5.7166    9.9206    1.9147 C.ar    1  LIG1       -0.0172
     39 S          -4.6951    8.5968    2.3196 S.2     1  LIG1       -0.0921
     40 H          -6.4484   10.2751    2.6236 H       1  LIG1        0.0697
     41 O          -3.9642    9.9630   -1.2294 O.3     1  LIG1       -0.5053
     42 H          -4.6551   10.3979   -1.7411 H       1  LIG1        0.2922
     43 C          -6.1736   11.5881    0.0247 C.3     1  LIG1       -0.0357
     44 H          -6.8838   12.0322    0.7200 H       1  LIG1        0.0279
     45 H          -6.7276   11.2669   -0.8620 H       1  LIG1        0.0279
     46 H          -5.4519   12.3523   -0.2707 H       1  LIG1        0.0279
@<TRIPOS>BOND
     1     6     1    1
     2     5     1   ar
     3     5     4   ar
     4     1     2   ar
     5    42    41    1
     6    30    29    1
     7    33    31    1
     8    41    36    1
     9    29    25    1
    10    45    43    1
    11     4    13    1
    12     4     3   ar
    13     2     7    1
    14     2     3   ar
    15    17    13   ar
    16    17    16   ar
    17    31    34    1
    18    31    26    1
    19    31    32    1
    20    13    14   ar
    21    25    26   ar
    22    25    24   ar
    23    46    43    1
    24     7     8    1
    25    26    27   ar
    26    16    24    1
    27    16    15   ar
    28    19    18    1
    29     3     9    1
    30    14    18    1
    31    14    15   ar
    32    22    20    1
    33    24    28   ar
    34    36    37   ar
    35    36    35   ar
    36    43    37    1
    37    43    44    1
    38    15    20    1
    39    27    28   ar
    40    27    35    1
    41    37    38   ar
    42    20    21    1
    43    20    23    1
    44    35    39   ar
    45    11     9    1
    46     9    10    1
    47     9    12    1
    48    38    39   ar
    49    38    40    1
