@<TRIPOS>MOLECULE
mol_data/opt/m06hf/geoms/mol2/5fi5fi-5fi-.out
 35 37 0 0 0
SMALL
GASTEIGER

@<TRIPOS>ATOM
      1 C          -1.8400   -1.7617   -1.2672 C.ar    1  LIG1        0.0180
      2 C          -0.7843   -1.8609   -0.4220 C.ar    1  LIG1        0.1273
      3 C          -0.3114   -0.5926    0.0764 C.ar    1  LIG1        0.0064
      4 C          -1.0344    0.4381   -0.4491 C.ar    1  LIG1        0.0359
      5 S          -2.2896   -0.1161   -1.5101 S.2     1  LIG1       -0.0920
      6 H          -2.3625   -2.5716   -1.7466 H       1  LIG1        0.0730
      7 O          -0.2539   -3.0596   -0.0406 O.3     1  LIG1       -0.5060
      8 H           0.6628   -2.9367    0.2275 H       1  LIG1        0.2922
      9 C           0.8081   -0.4729    1.0812 C.3     1  LIG1       -0.0351
     10 H           0.7362    0.4820    1.6007 H       1  LIG1        0.0279
     11 H           1.7821   -0.5118    0.5892 H       1  LIG1        0.0279
     12 H           0.7319   -1.2787    1.8152 H       1  LIG1        0.0279
     13 C          -0.8320    1.8674   -0.2092 C.ar    1  LIG1        0.0685
     14 C           0.3507    2.5463   -0.2485 C.ar    1  LIG1        0.1356
     15 C           0.2401    3.9521    0.0364 C.ar    1  LIG1        0.0070
     16 C          -1.0601    4.3044    0.2559 C.ar    1  LIG1        0.0365
     17 S          -2.1370    2.9492    0.1603 S.2     1  LIG1       -0.0831
     18 O           1.5413    1.9270   -0.5020 O.3     1  LIG1       -0.5053
     19 H           2.1008    2.5072   -1.0307 H       1  LIG1        0.2922
     20 C           1.4373    4.8680    0.1021 C.3     1  LIG1       -0.0351
     21 H           1.2017    5.7374    0.7147 H       1  LIG1        0.0279
     22 H           1.7093    5.2261   -0.8930 H       1  LIG1        0.0279
     23 H           2.2808    4.3356    0.5460 H       1  LIG1        0.0279
     24 C          -1.5704    5.6481    0.5299 C.ar    1  LIG1        0.0679
     25 C          -1.2684    6.7912   -0.1508 C.ar    1  LIG1        0.1350
     26 C          -1.9473    7.9638    0.3399 C.ar    1  LIG1       -0.0014
     27 C          -2.7576    7.6524    1.3844 C.ar    1  LIG1       -0.0172
     28 S          -2.7015    5.9842    1.8045 S.2     1  LIG1       -0.0921
     29 H          -3.3851    8.3295    1.9424 H       1  LIG1        0.0697
     30 O          -0.3939    6.8086   -1.1953 O.3     1  LIG1       -0.5053
     31 H          -0.5722    7.5665   -1.7627 H       1  LIG1        0.2922
     32 C          -1.7573    9.3335   -0.2689 C.3     1  LIG1       -0.0357
     33 H          -2.3274   10.0744    0.2887 H       1  LIG1        0.0279
     34 H          -2.1059    9.3522   -1.3055 H       1  LIG1        0.0279
     35 H          -0.7033    9.6184   -0.2477 H       1  LIG1        0.0279
@<TRIPOS>BOND
     1    31    30    1
     2     6     1    1
     3     5     1   ar
     4     5     4   ar
     5    34    32    1
     6     1     2   ar
     7    30    25    1
     8    19    18    1
     9    22    20    1
    10    18    14    1
    11     4    13    1
    12     4     3   ar
    13     2     7    1
    14     2     3   ar
    15    32    35    1
    16    32    33    1
    17    32    26    1
    18    14    13   ar
    19    14    15   ar
    20    13    17   ar
    21    25    26   ar
    22    25    24   ar
    23     7     8    1
    24    15    20    1
    25    15    16   ar
    26     3     9    1
    27    20    23    1
    28    20    21    1
    29    17    16   ar
    30    16    24    1
    31    26    27   ar
    32    24    28   ar
    33    11     9    1
    34     9    10    1
    35     9    12    1
    36    27    28   ar
    37    27    29    1
