@<TRIPOS>MOLECULE
mol_data/opt/m06hf/geoms/mol2/5fi5fi5fi-5fi-.out
 46 49 0 0 0
SMALL
GASTEIGER

@<TRIPOS>ATOM
      1 C          -1.3510   -1.7099   -1.9571 C.ar    1  LIG1        0.0180
      2 C          -0.7174   -1.8571   -0.7675 C.ar    1  LIG1        0.1273
      3 C          -0.4170   -0.6116   -0.1046 C.ar    1  LIG1        0.0064
      4 C          -0.8261    0.4518   -0.8552 C.ar    1  LIG1        0.0359
      5 S          -1.5862   -0.0446   -2.3343 S.2     1  LIG1       -0.0920
      6 H          -1.6819   -2.4949   -2.6155 H       1  LIG1        0.0730
      7 O          -0.4407   -3.0788   -0.2229 O.3     1  LIG1       -0.5060
      8 H           0.3357   -3.0119    0.3429 H       1  LIG1        0.2922
      9 C           0.2223   -0.5432    1.2604 C.3     1  LIG1       -0.0351
     10 H          -0.0039    0.4156    1.7252 H       1  LIG1        0.0279
     11 H           1.3086   -0.6285    1.1876 H       1  LIG1        0.0279
     12 H          -0.1700   -1.3442    1.8911 H       1  LIG1        0.0279
     13 C          -0.6769    1.8700   -0.5287 C.ar    1  LIG1        0.0685
     14 C           0.4497    2.4968   -0.0828 C.ar    1  LIG1        0.1356
     15 C           0.2896    3.9056    0.1626 C.ar    1  LIG1        0.0070
     16 C          -0.9752    4.3151   -0.1482 C.ar    1  LIG1        0.0365
     17 S          -1.9780    3.0047   -0.6906 S.2     1  LIG1       -0.0831
     18 O           1.6191    1.8289    0.1451 O.3     1  LIG1       -0.5053
     19 H           2.3626    2.3929   -0.0969 H       1  LIG1        0.2922
     20 C           1.3922    4.7659    0.7299 C.3     1  LIG1       -0.0351
     21 H           0.9598    5.6294    1.2344 H       1  LIG1        0.0279
     22 H           2.0450    5.1380   -0.0623 H       1  LIG1        0.0279
     23 H           1.9744    4.1857    1.4487 H       1  LIG1        0.0279
     24 C          -1.5052    5.6746   -0.0529 C.ar    1  LIG1        0.0685
     25 C          -0.9043    6.8221   -0.4826 C.ar    1  LIG1        0.1356
     26 C          -1.6613    8.0193   -0.2309 C.ar    1  LIG1        0.0070
     27 C          -2.8557    7.7259    0.3606 C.ar    1  LIG1        0.0365
     28 S          -3.0512    6.0278    0.6485 S.2     1  LIG1       -0.0831
     29 O           0.3270    6.8277   -1.0705 O.3     1  LIG1       -0.5053
     30 H           0.3691    7.5323   -1.7269 H       1  LIG1        0.2922
     31 C          -1.1421    9.3971   -0.5606 C.3     1  LIG1       -0.0351
     32 H          -1.6476   10.1377    0.0578 H       1  LIG1        0.0279
     33 H          -1.3363    9.6488   -1.6052 H       1  LIG1        0.0279
     34 H          -0.0690    9.4403   -0.3636 H       1  LIG1        0.0279
     35 C          -3.9091    8.6681    0.7386 C.ar    1  LIG1        0.0679
     36 C          -4.4200    9.6800   -0.0213 C.ar    1  LIG1        0.1350
     37 C          -5.4760   10.4203    0.6217 C.ar    1  LIG1       -0.0014
     38 C          -5.7339    9.9200    1.8582 C.ar    1  LIG1       -0.0172
     39 S          -4.7156    8.5966    2.2722 S.2     1  LIG1       -0.0921
     40 H          -6.4718   10.2745    2.5607 H       1  LIG1        0.0697
     41 O          -3.9548    9.9620   -1.2708 O.3     1  LIG1       -0.5053
     42 H          -4.6414   10.3965   -1.7885 H       1  LIG1        0.2922
     43 C          -6.1753   11.5868   -0.0361 C.3     1  LIG1       -0.0357
     44 H          -6.8915   12.0309    0.6530 H       1  LIG1        0.0279
     45 H          -6.7216   11.2653   -0.9274 H       1  LIG1        0.0279
     46 H          -5.4513   12.3511   -0.3255 H       1  LIG1        0.0279
@<TRIPOS>BOND
     1     6     1    1
     2     5     1   ar
     3     5     4   ar
     4     1     2   ar
     5    42    41    1
     6    30    29    1
     7    33    31    1
     8    41    36    1
     9    29    25    1
    10    45    43    1
    11     4    13    1
    12     4     3   ar
    13     2     7    1
    14     2     3   ar
    15    17    13   ar
    16    17    16   ar
    17    31    34    1
    18    31    26    1
    19    31    32    1
    20    13    14   ar
    21    25    26   ar
    22    25    24   ar
    23    46    43    1
    24    26    27   ar
    25     7     8    1
    26    16    24    1
    27    16    15   ar
    28     3     9    1
    29    19    18    1
    30    14    18    1
    31    14    15   ar
    32    22    20    1
    33    24    28   ar
    34    43    37    1
    35    43    44    1
    36    36    37   ar
    37    36    35   ar
    38    15    20    1
    39    27    28   ar
    40    27    35    1
    41    37    38   ar
    42    20    21    1
    43    20    23    1
    44    35    39   ar
    45    11     9    1
    46     9    10    1
    47     9    12    1
    48    38    39   ar
    49    38    40    1
