@<TRIPOS>MOLECULE
mol_data/opt/m06hf/geoms/mol2/5fi5fi5fi.out
 35 37 0 0 0
SMALL
GASTEIGER

@<TRIPOS>ATOM
      1 C          -1.8299   -1.7679   -1.2638 C.ar    1  LIG1        0.0180
      2 C          -0.7780   -1.8628   -0.4135 C.ar    1  LIG1        0.1273
      3 C          -0.3084   -0.5921    0.0819 C.ar    1  LIG1        0.0064
      4 C          -1.0299    0.4359   -0.4510 C.ar    1  LIG1        0.0359
      5 S          -2.2799   -0.1237   -1.5154 S.2     1  LIG1       -0.0920
      6 H          -2.3496   -2.5802   -1.7423 H       1  LIG1        0.0730
      7 O          -0.2482   -3.0595   -0.0248 O.3     1  LIG1       -0.5060
      8 H           0.6673   -2.9348    0.2463 H       1  LIG1        0.2922
      9 C           0.8065   -0.4673    1.0912 C.3     1  LIG1       -0.0351
     10 H           0.7317    0.4896    1.6064 H       1  LIG1        0.0279
     11 H           1.7827   -0.5074    0.6036 H       1  LIG1        0.0279
     12 H           0.7278   -1.2702    1.8281 H       1  LIG1        0.0279
     13 C          -0.8298    1.8663   -0.2160 C.ar    1  LIG1        0.0685
     14 C           0.3526    2.5459   -0.2529 C.ar    1  LIG1        0.1356
     15 C           0.2396    3.9529    0.0259 C.ar    1  LIG1        0.0070
     16 C          -1.0618    4.3050    0.2383 C.ar    1  LIG1        0.0365
     17 S          -2.1372    2.9485    0.1434 S.2     1  LIG1       -0.0831
     18 O           1.5448    1.9266   -0.4987 O.3     1  LIG1       -0.5053
     19 H           2.1064    2.5055   -1.0265 H       1  LIG1        0.2922
     20 C           1.4359    4.8700    0.0932 C.3     1  LIG1       -0.0351
     21 H           1.1968    5.7417    0.7011 H       1  LIG1        0.0279
     22 H           1.7120    5.2242   -0.9021 H       1  LIG1        0.0279
     23 H           2.2777    4.3401    0.5431 H       1  LIG1        0.0279
     24 C          -1.5744    5.6493    0.5046 C.ar    1  LIG1        0.0679
     25 C          -1.2703    6.7900   -0.1794 C.ar    1  LIG1        0.1350
     26 C          -1.9523    7.9640    0.3036 C.ar    1  LIG1       -0.0014
     27 C          -2.7670    7.6561    1.3458 C.ar    1  LIG1       -0.0172
     28 S          -2.7113    5.9896    1.7730 S.2     1  LIG1       -0.0921
     29 H          -3.3975    8.3350    1.8982 H       1  LIG1        0.0697
     30 O          -0.3912    6.8038   -1.2201 O.3     1  LIG1       -0.5053
     31 H          -0.5679    7.5591   -1.7915 H       1  LIG1        0.2922
     32 C          -1.7607    9.3313   -0.3099 C.3     1  LIG1       -0.0357
     33 H          -2.3339   10.0740    0.2422 H       1  LIG1        0.0279
     34 H          -2.1049    9.3455   -1.3481 H       1  LIG1        0.0279
     35 H          -0.7071    9.6172   -0.2853 H       1  LIG1        0.0279
@<TRIPOS>BOND
     1    31    30    1
     2     6     1    1
     3     5     1   ar
     4     5     4   ar
     5    34    32    1
     6     1     2   ar
     7    30    25    1
     8    19    18    1
     9    22    20    1
    10    18    14    1
    11     4    13    1
    12     4     3   ar
    13     2     7    1
    14     2     3   ar
    15    32    35    1
    16    32    33    1
    17    32    26    1
    18    14    13   ar
    19    14    15   ar
    20    13    17   ar
    21    25    26   ar
    22    25    24   ar
    23     7     8    1
    24    15    20    1
    25    15    16   ar
    26     3     9    1
    27    20    23    1
    28    20    21    1
    29    17    16   ar
    30    16    24    1
    31    26    27   ar
    32    24    28   ar
    33    11     9    1
    34     9    10    1
    35     9    12    1
    36    27    28   ar
    37    27    29    1
