@<TRIPOS>MOLECULE
mol_data/opt/m06hf/geoms/mol2/5fi5fi-.out
 24 25 0 0 0
SMALL
GASTEIGER

@<TRIPOS>ATOM
      1 C          -2.0537   -1.7707   -0.6387 C.ar    1  LIG1        0.0180
      2 C          -0.7711   -1.8139   -0.2019 C.ar    1  LIG1        0.1273
      3 C          -0.2307   -0.5258    0.1574 C.ar    1  LIG1        0.0064
      4 C          -1.1462    0.4633   -0.0534 C.ar    1  LIG1        0.0359
      5 S          -2.6508   -0.1539   -0.6542 S.2     1  LIG1       -0.0920
      6 H          -2.6613   -2.6046   -0.9453 H       1  LIG1        0.0730
      7 O          -0.0752   -2.9810   -0.0625 O.3     1  LIG1       -0.5060
      8 H           0.8644   -2.8141   -0.1936 H       1  LIG1        0.2922
      9 C           1.1537   -0.3490    0.7305 C.3     1  LIG1       -0.0351
     10 H           1.2076    0.5923    1.2762 H       1  LIG1        0.0279
     11 H           1.9039   -0.3177   -0.0626 H       1  LIG1        0.0279
     12 H           1.3761   -1.1702    1.4154 H       1  LIG1        0.0279
     13 C          -0.9582    1.8990    0.1624 C.ar    1  LIG1        0.0679
     14 C           0.0954    2.6603   -0.2512 C.ar    1  LIG1        0.1350
     15 C          -0.0143    4.0541    0.0989 C.ar    1  LIG1       -0.0014
     16 C          -1.1722    4.2963    0.7654 C.ar    1  LIG1       -0.0172
     17 S          -2.1178    2.8767    1.0022 S.2     1  LIG1       -0.0921
     18 H          -1.5164    5.2455    1.1443 H       1  LIG1        0.0697
     19 O           1.1592    2.1331   -0.9214 O.3     1  LIG1       -0.5053
     20 H           1.5823    2.8146   -1.4547 H       1  LIG1        0.2922
     21 C           1.0440    5.0720   -0.2576 C.3     1  LIG1       -0.0357
     22 H           0.7798    6.0454    0.1519 H       1  LIG1        0.0279
     23 H           1.1370    5.1777   -1.3422 H       1  LIG1        0.0279
     24 H           2.0121    4.7736    0.1492 H       1  LIG1        0.0279
@<TRIPOS>BOND
     1    20    19    1
     2    23    21    1
     3     6     1    1
     4    19    14    1
     5     5     1   ar
     6     5     4   ar
     7     1     2   ar
     8    21    15    1
     9    21    24    1
    10    21    22    1
    11    14    15   ar
    12    14    13   ar
    13     2     7    1
    14     2     3   ar
    15     8     7    1
    16    11     9    1
    17     4     3   ar
    18     4    13    1
    19    15    16   ar
    20     3     9    1
    21    13    17   ar
    22     9    10    1
    23     9    12    1
    24    16    17   ar
    25    16    18    1
