@<TRIPOS>MOLECULE
mol_data/opt/m06hf/geoms/mol2/5fi5fi5fi5fi-.out
 46 49 0 0 0
SMALL
GASTEIGER

@<TRIPOS>ATOM
      1 C          -1.3551   -1.7058   -1.9674 C.ar    1  LIG1        0.0180
      2 C          -0.7163   -1.8550   -0.7808 C.ar    1  LIG1        0.1273
      3 C          -0.4138   -0.6106   -0.1167 C.ar    1  LIG1        0.0064
      4 C          -0.8268    0.4541   -0.8633 C.ar    1  LIG1        0.0359
      5 S          -1.5929   -0.0398   -2.3401 S.2     1  LIG1       -0.0920
      6 H          -1.6883   -2.4896   -2.6259 H       1  LIG1        0.0730
      7 O          -0.4364   -3.0776   -0.2399 O.3     1  LIG1       -0.5060
      8 H           0.3424   -3.0113    0.3227 H       1  LIG1        0.2922
      9 C           0.2314   -0.5446    1.2457 C.3     1  LIG1       -0.0351
     10 H           0.0065    0.4131    1.7135 H       1  LIG1        0.0279
     11 H           1.3174   -0.6290    1.1680 H       1  LIG1        0.0279
     12 H          -0.1577   -1.3471    1.8765 H       1  LIG1        0.0279
     13 C          -0.6771    1.8717   -0.5345 C.ar    1  LIG1        0.0685
     14 C           0.4510    2.4983   -0.0923 C.ar    1  LIG1        0.1356
     15 C           0.2911    3.9065    0.1567 C.ar    1  LIG1        0.0070
     16 C          -0.9753    4.3158   -0.1478 C.ar    1  LIG1        0.0365
     17 S          -1.9796    3.0059   -0.6885 S.2     1  LIG1       -0.0831
     18 O           1.6219    1.8307    0.1293 O.3     1  LIG1       -0.5053
     19 H           2.3639    2.3956   -0.1148 H       1  LIG1        0.2922
     20 C           1.3956    4.7663    0.7210 C.3     1  LIG1       -0.0351
     21 H           0.9648    5.6286    1.2291 H       1  LIG1        0.0279
     22 H           2.0448    5.1405   -0.0733 H       1  LIG1        0.0279
     23 H           1.9812    4.1851    1.4361 H       1  LIG1        0.0279
     24 C          -1.5057    5.6748   -0.0475 C.ar    1  LIG1        0.0685
     25 C          -0.9074    6.8236   -0.4774 C.ar    1  LIG1        0.1356
     26 C          -1.6641    8.0197   -0.2200 C.ar    1  LIG1        0.0070
     27 C          -2.8558    7.7244    0.3761 C.ar    1  LIG1        0.0365
     28 S          -3.0489    6.0256    0.6613 S.2     1  LIG1       -0.0831
     29 O           0.3213    6.8311   -1.0706 O.3     1  LIG1       -0.5053
     30 H           0.3602    7.5371   -1.7258 H       1  LIG1        0.2922
     31 C          -1.1471    9.3985   -0.5491 C.3     1  LIG1       -0.0351
     32 H          -1.6505   10.1375    0.0729 H       1  LIG1        0.0279
     33 H          -1.3460    9.6522   -1.5924 H       1  LIG1        0.0279
     34 H          -0.0732    9.4420   -0.3567 H       1  LIG1        0.0279
     35 C          -3.9081    8.6652    0.7605 C.ar    1  LIG1        0.0679
     36 C          -4.4229    9.6783    0.0049 C.ar    1  LIG1        0.1350
     37 C          -5.4766   10.4165    0.6539 C.ar    1  LIG1       -0.0014
     38 C          -5.7288    9.9136    1.8905 C.ar    1  LIG1       -0.0172
     39 S          -4.7079    8.5900    2.2974 S.2     1  LIG1       -0.0921
     40 H          -6.4639   10.2662    2.5969 H       1  LIG1        0.0697
     41 O          -3.9632    9.9631   -1.2461 O.3     1  LIG1       -0.5053
     42 H          -4.6523   10.3982   -1.7599 H       1  LIG1        0.2922
     43 C          -6.1794   11.5840    0.0015 C.3     1  LIG1       -0.0357
     44 H          -6.8929   12.0262    0.6946 H       1  LIG1        0.0279
     45 H          -6.7293   11.2639   -0.8881 H       1  LIG1        0.0279
     46 H          -5.4571   12.3493   -0.2895 H       1  LIG1        0.0279
@<TRIPOS>BOND
     1     6     1    1
     2     5     1   ar
     3     5     4   ar
     4     1     2   ar
     5    42    41    1
     6    30    29    1
     7    33    31    1
     8    41    36    1
     9    29    25    1
    10    45    43    1
    11     4    13    1
    12     4     3   ar
    13     2     7    1
    14     2     3   ar
    15    17    13   ar
    16    17    16   ar
    17    31    34    1
    18    31    26    1
    19    31    32    1
    20    13    14   ar
    21    25    26   ar
    22    25    24   ar
    23    46    43    1
    24     7     8    1
    25    26    27   ar
    26    16    24    1
    27    16    15   ar
    28     3     9    1
    29    19    18    1
    30    14    18    1
    31    14    15   ar
    32    22    20    1
    33    24    28   ar
    34    43    37    1
    35    43    44    1
    36    36    37   ar
    37    36    35   ar
    38    15    20    1
    39    27    28   ar
    40    27    35    1
    41    37    38   ar
    42    20    21    1
    43    20    23    1
    44    35    39   ar
    45    11     9    1
    46     9    10    1
    47     9    12    1
    48    38    39   ar
    49    38    40    1
