@<TRIPOS>MOLECULE
mol_data/opt/m06hf/geoms/mol2/5fi5fi-5fi-5fi.out
 46 49 0 0 0
SMALL
GASTEIGER

@<TRIPOS>ATOM
      1 C          -1.3664   -1.7055   -1.9505 C.ar    1  LIG1        0.0180
      2 C          -0.7231   -1.8553   -0.7664 C.ar    1  LIG1        0.1273
      3 C          -0.4174   -0.6112   -0.1032 C.ar    1  LIG1        0.0064
      4 C          -0.8327    0.4538   -0.8481 C.ar    1  LIG1        0.0359
      5 S          -1.6048   -0.0394   -2.3220 S.2     1  LIG1       -0.0920
      6 H          -1.7026   -2.4890   -2.6079 H       1  LIG1        0.0730
      7 O          -0.4418   -3.0782   -0.2269 O.3     1  LIG1       -0.5060
      8 H           0.3392   -3.0124    0.3327 H       1  LIG1        0.2922
      9 C           0.2331   -0.5458    1.2566 C.3     1  LIG1       -0.0351
     10 H           0.0106    0.4119    1.7254 H       1  LIG1        0.0279
     11 H           1.3188   -0.6308    1.1747 H       1  LIG1        0.0279
     12 H          -0.1540   -1.3482    1.8887 H       1  LIG1        0.0279
     13 C          -0.6810    1.8713   -0.5196 C.ar    1  LIG1        0.0685
     14 C           0.4491    2.4972   -0.0816 C.ar    1  LIG1        0.1356
     15 C           0.2909    3.9055    0.1683 C.ar    1  LIG1        0.0070
     16 C          -0.9765    4.3155   -0.1313 C.ar    1  LIG1        0.0365
     17 S          -1.9835    3.0062   -0.6683 S.2     1  LIG1       -0.0831
     18 O           1.6205    1.8289    0.1353 O.3     1  LIG1       -0.5053
     19 H           2.3619    2.3936   -0.1116 H       1  LIG1        0.2922
     20 C           1.3980    4.7646    0.7285 C.3     1  LIG1       -0.0351
     21 H           0.9697    5.6270    1.2384 H       1  LIG1        0.0279
     22 H           2.0444    5.1386   -0.0683 H       1  LIG1        0.0279
     23 H           1.9861    4.1829    1.4411 H       1  LIG1        0.0279
     24 C          -1.5057    5.6748   -0.0286 C.ar    1  LIG1        0.0685
     25 C          -0.9085    6.8233   -0.4606 C.ar    1  LIG1        0.1356
     26 C          -1.6635    8.0198   -0.2000 C.ar    1  LIG1        0.0070
     27 C          -2.8530    7.7249    0.4006 C.ar    1  LIG1        0.0365
     28 S          -3.0460    6.0262    0.6863 S.2     1  LIG1       -0.0831
     29 O           0.3179    6.8303   -1.0585 O.3     1  LIG1       -0.5053
     30 H           0.3546    7.5364   -1.7137 H       1  LIG1        0.2922
     31 C          -1.1471    9.3984   -0.5309 C.3     1  LIG1       -0.0351
     32 H          -1.6477   10.1375    0.0933 H       1  LIG1        0.0279
     33 H          -1.3499    9.6524   -1.5733 H       1  LIG1        0.0279
     34 H          -0.0725    9.4413   -0.3426 H       1  LIG1        0.0279
     35 C          -3.9034    8.6662    0.7893 C.ar    1  LIG1        0.0679
     36 C          -4.4206    9.6797    0.0359 C.ar    1  LIG1        0.1350
     37 C          -5.4714   10.4184    0.6892 C.ar    1  LIG1       -0.0014
     38 C          -5.7190    9.9153    1.9266 C.ar    1  LIG1       -0.0172
     39 S          -4.6972    8.5911    2.3293 S.2     1  LIG1       -0.0921
     40 H          -6.4512   10.2682    2.6359 H       1  LIG1        0.0697
     41 O          -3.9656    9.9646   -1.2168 O.3     1  LIG1       -0.5053
     42 H          -4.6565   10.4002   -1.7279 H       1  LIG1        0.2922
     43 C          -6.1761   11.5864    0.0397 C.3     1  LIG1       -0.0357
     44 H          -6.8867   12.0288    0.7357 H       1  LIG1        0.0279
     45 H          -6.7296   11.2667   -0.8478 H       1  LIG1        0.0279
     46 H          -5.4545   12.3513   -0.2539 H       1  LIG1        0.0279
@<TRIPOS>BOND
     1     6     1    1
     2     5     1   ar
     3     5     4   ar
     4     1     2   ar
     5    42    41    1
     6    30    29    1
     7    33    31    1
     8    41    36    1
     9    29    25    1
    10     4    13    1
    11     4     3   ar
    12    45    43    1
    13     2     7    1
    14     2     3   ar
    15    17    13   ar
    16    17    16   ar
    17    31    34    1
    18    31    26    1
    19    31    32    1
    20    13    14   ar
    21    25    26   ar
    22    25    24   ar
    23    46    43    1
    24     7     8    1
    25    26    27   ar
    26    16    24    1
    27    16    15   ar
    28    19    18    1
    29     3     9    1
    30    14    18    1
    31    14    15   ar
    32    22    20    1
    33    24    28   ar
    34    36    37   ar
    35    36    35   ar
    36    43    37    1
    37    43    44    1
    38    15    20    1
    39    27    28   ar
    40    27    35    1
    41    37    38   ar
    42    20    21    1
    43    20    23    1
    44    35    39   ar
    45    11     9    1
    46     9    10    1
    47     9    12    1
    48    38    39   ar
    49    38    40    1
