@<TRIPOS>MOLECULE
mol_data/opt/m06hf/geoms/mol2/5fi5fi-5fi5fi.out
 46 49 0 0 0
SMALL
GASTEIGER

@<TRIPOS>ATOM
      1 C          -1.3763   -1.6981   -1.9727 C.ar    1  LIG1        0.0180
      2 C          -0.7269   -1.8524   -0.7925 C.ar    1  LIG1        0.1273
      3 C          -0.4178   -0.6108   -0.1262 C.ar    1  LIG1        0.0064
      4 C          -0.8370    0.4571   -0.8649 C.ar    1  LIG1        0.0359
      5 S          -1.6165   -0.0306   -2.3367 S.2     1  LIG1       -0.0920
      6 H          -1.7158   -2.4792   -2.6313 H       1  LIG1        0.0730
      7 O          -0.4429   -3.0772   -0.2589 O.3     1  LIG1       -0.5060
      8 H           0.3411   -3.0136    0.2968 H       1  LIG1        0.2922
      9 C           0.2396   -0.5505    1.2305 C.3     1  LIG1       -0.0351
     10 H           0.0195    0.4055    1.7042 H       1  LIG1        0.0279
     11 H           1.3248   -0.6351    1.1428 H       1  LIG1        0.0279
     12 H          -0.1443   -1.3553    1.8617 H       1  LIG1        0.0279
     13 C          -0.6836    1.8733   -0.5318 C.ar    1  LIG1        0.0685
     14 C           0.4488    2.4977   -0.0973 C.ar    1  LIG1        0.1356
     15 C           0.2918    3.9049    0.1587 C.ar    1  LIG1        0.0070
     16 C          -0.9771    4.3160   -0.1328 C.ar    1  LIG1        0.0365
     17 S          -1.9868    3.0087   -0.6696 S.2     1  LIG1       -0.0831
     18 O           1.6212    1.8286    0.1110 O.3     1  LIG1       -0.5053
     19 H           2.3613    2.3943   -0.1371 H       1  LIG1        0.2922
     20 C           1.4017    4.7620    0.7165 C.3     1  LIG1       -0.0351
     21 H           0.9760    5.6224    1.2318 H       1  LIG1        0.0279
     22 H           2.0440    5.1390   -0.0822 H       1  LIG1        0.0279
     23 H           1.9935    4.1777    1.4239 H       1  LIG1        0.0279
     24 C          -1.5059    5.6749   -0.0223 C.ar    1  LIG1        0.0685
     25 C          -0.9109    6.8250   -0.4531 C.ar    1  LIG1        0.1356
     26 C          -1.6647    8.0205   -0.1842 C.ar    1  LIG1        0.0070
     27 C          -2.8511    7.7234    0.4214 C.ar    1  LIG1        0.0365
     28 S          -3.0425    6.0235    0.7017 S.2     1  LIG1       -0.0831
     29 O           0.3124    6.8344   -1.0572 O.3     1  LIG1       -0.5053
     30 H           0.3457    7.5428   -1.7101 H       1  LIG1        0.2922
     31 C          -1.1500    9.4003   -0.5126 C.3     1  LIG1       -0.0351
     32 H          -1.6474   10.1372    0.1168 H       1  LIG1        0.0279
     33 H          -1.3581    9.6582   -1.5530 H       1  LIG1        0.0279
     34 H          -0.0744    9.4426   -0.3295 H       1  LIG1        0.0279
     35 C          -3.8995    8.6631    0.8189 C.ar    1  LIG1        0.0679
     36 C          -4.4205    9.6794    0.0720 C.ar    1  LIG1        0.1350
     37 C          -5.4680   10.4156    0.7334 C.ar    1  LIG1       -0.0014
     38 C          -5.7093    9.9079    1.9702 C.ar    1  LIG1       -0.0172
     39 S          -4.6854    8.5822    2.3627 S.2     1  LIG1       -0.0921
     40 H          -6.4379   10.2581    2.6846 H       1  LIG1        0.0697
     41 O          -3.9720    9.9689   -1.1819 O.3     1  LIG1       -0.5053
     42 H          -4.6654   10.4064   -1.6879 H       1  LIG1        0.2922
     43 C          -6.1761   11.5859    0.0919 C.3     1  LIG1       -0.0357
     44 H          -6.8831   12.0257    0.7931 H       1  LIG1        0.0279
     45 H          -6.7341   11.2696   -0.7940 H       1  LIG1        0.0279
     46 H          -5.4561   12.3520   -0.2026 H       1  LIG1        0.0279
@<TRIPOS>BOND
     1     6     1    1
     2     5     1   ar
     3     5     4   ar
     4     1     2   ar
     5    30    29    1
     6    42    41    1
     7    33    31    1
     8    41    36    1
     9    29    25    1
    10     4    13    1
    11     4     3   ar
    12    45    43    1
    13     2     7    1
    14     2     3   ar
    15    17    13   ar
    16    17    16   ar
    17    13    14   ar
    18    31    34    1
    19    31    26    1
    20    31    32    1
    21    25    26   ar
    22    25    24   ar
    23     7     8    1
    24    46    43    1
    25    26    27   ar
    26    19    18    1
    27    16    24    1
    28    16    15   ar
    29     3     9    1
    30    14    18    1
    31    14    15   ar
    32    22    20    1
    33    24    28   ar
    34    36    37   ar
    35    36    35   ar
    36    43    37    1
    37    43    44    1
    38    15    20    1
    39    27    28   ar
    40    27    35    1
    41    20    21    1
    42    20    23    1
    43    37    38   ar
    44    35    39   ar
    45    11     9    1
    46     9    10    1
    47     9    12    1
    48    38    39   ar
    49    38    40    1
