@<TRIPOS>MOLECULE
mol_data/opt/m06hf/geoms/mol2/5fi5fi5fi-5fi.out
 46 49 0 0 0
SMALL
GASTEIGER

@<TRIPOS>ATOM
      1 C          -1.3441   -1.7011   -1.9832 C.ar    1  LIG1        0.0180
      2 C          -0.7132   -1.8534   -0.7927 C.ar    1  LIG1        0.1273
      3 C          -0.4147   -0.6107   -0.1236 C.ar    1  LIG1        0.0064
      4 C          -0.8225    0.4559   -0.8704 C.ar    1  LIG1        0.0359
      5 S          -1.5790   -0.0341   -2.3534 S.2     1  LIG1       -0.0920
      6 H          -1.6732   -2.4832   -2.6458 H       1  LIG1        0.0730
      7 O          -0.4372   -3.0774   -0.2530 O.3     1  LIG1       -0.5060
      8 H           0.3379   -3.0127    0.3148 H       1  LIG1        0.2922
      9 C           0.2215   -0.5482    1.2431 C.3     1  LIG1       -0.0351
     10 H          -0.0062    0.4084    1.7117 H       1  LIG1        0.0279
     11 H           1.3080   -0.6328    1.1723 H       1  LIG1        0.0279
     12 H          -0.1720   -1.3521    1.8694 H       1  LIG1        0.0279
     13 C          -0.6746    1.8727   -0.5372 C.ar    1  LIG1        0.0685
     14 C           0.4507    2.4979   -0.0860 C.ar    1  LIG1        0.1356
     15 C           0.2896    3.9055    0.1654 C.ar    1  LIG1        0.0070
     16 C          -0.9747    4.3159   -0.1465 C.ar    1  LIG1        0.0365
     17 S          -1.9757    3.0076   -0.6969 S.2     1  LIG1       -0.0831
     18 O           1.6199    1.8294    0.1416 O.3     1  LIG1       -0.5053
     19 H           2.3637    2.3947   -0.0961 H       1  LIG1        0.2922
     20 C           1.3906    4.7636    0.7391 C.3     1  LIG1       -0.0351
     21 H           0.9567    5.6248    1.2464 H       1  LIG1        0.0279
     22 H           2.0451    5.1396   -0.0500 H       1  LIG1        0.0279
     23 H           1.9713    4.1805    1.4565 H       1  LIG1        0.0279
     24 C          -1.5054    5.6748   -0.0463 C.ar    1  LIG1        0.0685
     25 C          -0.9039    6.8245   -0.4695 C.ar    1  LIG1        0.1356
     26 C          -1.6620    8.0202   -0.2141 C.ar    1  LIG1        0.0070
     27 C          -2.8576    7.7237    0.3734 C.ar    1  LIG1        0.0365
     28 S          -3.0531    6.0243    0.6532 S.2     1  LIG1       -0.0831
     29 O           0.3286    6.8331   -1.0545 O.3     1  LIG1       -0.5053
     30 H           0.3720    7.5407   -1.7077 H       1  LIG1        0.2922
     31 C          -1.1425    9.3997   -0.5365 C.3     1  LIG1       -0.0351
     32 H          -1.6497   10.1373    0.0841 H       1  LIG1        0.0279
     33 H          -1.3345    9.6560   -1.5803 H       1  LIG1        0.0279
     34 H          -0.0699    9.4424   -0.3369 H       1  LIG1        0.0279
     35 C          -3.9122    8.6639    0.7532 C.ar    1  LIG1        0.0679
     36 C          -4.4218    9.6790   -0.0033 C.ar    1  LIG1        0.1350
     37 C          -5.4795   10.4159    0.6407 C.ar    1  LIG1       -0.0014
     38 C          -5.7400    9.9101    1.8743 C.ar    1  LIG1       -0.0172
     39 S          -4.7221    8.5852    2.2847 S.2     1  LIG1       -0.0921
     40 H          -6.4796   10.2612    2.5767 H       1  LIG1        0.0697
     41 O          -3.9539    9.9667   -1.2505 O.3     1  LIG1       -0.5053
     42 H          -4.6394   10.4033   -1.7678 H       1  LIG1        0.2922
     43 C          -6.1777   11.5852   -0.0135 C.3     1  LIG1       -0.0357
     44 H          -6.8957   12.0259    0.6760 H       1  LIG1        0.0279
     45 H          -6.7219   11.2674   -0.9075 H       1  LIG1        0.0279
     46 H          -5.4533   12.3510   -0.2979 H       1  LIG1        0.0279
@<TRIPOS>BOND
     1     6     1    1
     2     5     1   ar
     3     5     4   ar
     4     1     2   ar
     5    42    41    1
     6    30    29    1
     7    33    31    1
     8    41    36    1
     9    29    25    1
    10    45    43    1
    11     4    13    1
    12     4     3   ar
    13     2     7    1
    14     2     3   ar
    15    17    13   ar
    16    17    16   ar
    17    13    14   ar
    18    31    34    1
    19    31    26    1
    20    31    32    1
    21    25    26   ar
    22    25    24   ar
    23    46    43    1
    24     7     8    1
    25    26    27   ar
    26    16    24    1
    27    16    15   ar
    28     3     9    1
    29    19    18    1
    30    14    18    1
    31    14    15   ar
    32    22    20    1
    33    24    28   ar
    34    43    37    1
    35    43    44    1
    36    36    37   ar
    37    36    35   ar
    38    15    20    1
    39    27    28   ar
    40    27    35    1
    41    37    38   ar
    42    20    21    1
    43    20    23    1
    44    35    39   ar
    45    11     9    1
    46     9    10    1
    47     9    12    1
    48    38    39   ar
    49    38    40    1
