@<TRIPOS>MOLECULE
mol_data/opt/m06hf/geoms/mol2/5fi5fi-5fi.out
 35 37 0 0 0
SMALL
GASTEIGER

@<TRIPOS>ATOM
      1 C          -1.8476   -1.7628   -1.2602 C.ar    1  LIG1        0.0180
      2 C          -0.7879   -1.8613   -0.4199 C.ar    1  LIG1        0.1273
      3 C          -0.3124   -0.5926    0.0747 C.ar    1  LIG1        0.0064
      4 C          -1.0375    0.4378   -0.4486 C.ar    1  LIG1        0.0359
      5 S          -2.2979   -0.1174   -1.5030 S.2     1  LIG1       -0.0920
      6 H          -2.3725   -2.5732   -1.7362 H       1  LIG1        0.0730
      7 O          -0.2561   -3.0597   -0.0395 O.3     1  LIG1       -0.5060
      8 H           0.6623   -2.9368    0.2230 H       1  LIG1        0.2922
      9 C           0.8119   -0.4719    1.0741 C.3     1  LIG1       -0.0351
     10 H           0.7427    0.4835    1.5928 H       1  LIG1        0.0279
     11 H           1.7836   -0.5115    0.5774 H       1  LIG1        0.0279
     12 H           0.7391   -1.2769    1.8092 H       1  LIG1        0.0279
     13 C          -0.8336    1.8673   -0.2113 C.ar    1  LIG1        0.0685
     14 C           0.3491    2.5457   -0.2572 C.ar    1  LIG1        0.1356
     15 C           0.2403    3.9519    0.0266 C.ar    1  LIG1        0.0070
     16 C          -1.0586    4.3049    0.2521 C.ar    1  LIG1        0.0365
     17 S          -2.1364    2.9499    0.1632 S.2     1  LIG1       -0.0831
     18 O           1.5383    1.9257   -0.5158 O.3     1  LIG1       -0.5053
     19 H           2.0957    2.5055   -1.0472 H       1  LIG1        0.2922
     20 C           1.4382    4.8675    0.0855 C.3     1  LIG1       -0.0351
     21 H           1.2058    5.7377    0.6982 H       1  LIG1        0.0279
     22 H           1.7056    5.2243   -0.9113 H       1  LIG1        0.0279
     23 H           2.2836    4.3354    0.5261 H       1  LIG1        0.0279
     24 C          -1.5672    5.6490    0.5270 C.ar    1  LIG1        0.0679
     25 C          -1.2681    6.7913   -0.1564 C.ar    1  LIG1        0.1350
     26 C          -1.9443    7.9647    0.3363 C.ar    1  LIG1       -0.0014
     27 C          -2.7496    7.6547    1.3850 C.ar    1  LIG1       -0.0172
     28 S          -2.6920    5.9869    1.8068 S.2     1  LIG1       -0.0921
     29 H          -3.3742    8.3326    1.9453 H       1  LIG1        0.0697
     30 O          -0.3986    6.8072   -1.2052 O.3     1  LIG1       -0.5053
     31 H          -0.5797    7.5644   -1.7726 H       1  LIG1        0.2922
     32 C          -1.7567    9.3336   -0.2750 C.3     1  LIG1       -0.0357
     33 H          -2.3239   10.0753    0.2845 H       1  LIG1        0.0279
     34 H          -2.1104    9.3513   -1.3099 H       1  LIG1        0.0279
     35 H          -0.7026    9.6182   -0.2592 H       1  LIG1        0.0279
@<TRIPOS>BOND
     1    31    30    1
     2     6     1    1
     3     5     1   ar
     4     5     4   ar
     5    34    32    1
     6     1     2   ar
     7    30    25    1
     8    19    18    1
     9    22    20    1
    10    18    14    1
    11     4    13    1
    12     4     3   ar
    13     2     7    1
    14     2     3   ar
    15    32    35    1
    16    32    33    1
    17    32    26    1
    18    14    13   ar
    19    14    15   ar
    20    13    17   ar
    21    25    26   ar
    22    25    24   ar
    23     7     8    1
    24    15    20    1
    25    15    16   ar
    26     3     9    1
    27    20    23    1
    28    20    21    1
    29    17    16   ar
    30    16    24    1
    31    26    27   ar
    32    24    28   ar
    33    11     9    1
    34     9    10    1
    35     9    12    1
    36    27    28   ar
    37    27    29    1
