@<TRIPOS>MOLECULE
mol_data/opt/m06hf/geoms/mol2/5fi5fi.out
 24 25 0 0 0
SMALL
GASTEIGER

@<TRIPOS>ATOM
      1 C          -2.0508   -1.7681   -0.6531 C.ar    1  LIG1        0.0180
      2 C          -0.7701   -1.8130   -0.2112 C.ar    1  LIG1        0.1273
      3 C          -0.2314   -0.5263    0.1560 C.ar    1  LIG1        0.0064
      4 C          -1.1462    0.4636   -0.0542 C.ar    1  LIG1        0.0359
      5 S          -2.6482   -0.1512   -0.6640 S.2     1  LIG1       -0.0920
      6 H          -2.6572   -2.6006   -0.9658 H       1  LIG1        0.0730
      7 O          -0.0745   -2.9805   -0.0742 O.3     1  LIG1       -0.5060
      8 H           0.8657   -2.8125   -0.1989 H       1  LIG1        0.2922
      9 C           1.1507   -0.3519    0.7354 C.3     1  LIG1       -0.0351
     10 H           1.2023    0.5871    1.2852 H       1  LIG1        0.0279
     11 H           1.9040   -0.3173   -0.0545 H       1  LIG1        0.0279
     12 H           1.3703   -1.1759    1.4179 H       1  LIG1        0.0279
     13 C          -0.9591    1.8983    0.1685 C.ar    1  LIG1        0.0679
     14 C           0.0961    2.6613   -0.2375 C.ar    1  LIG1        0.1350
     15 C          -0.0148    4.0535    0.1184 C.ar    1  LIG1       -0.0014
     16 C          -1.1755    4.2929    0.7810 C.ar    1  LIG1       -0.0172
     17 S          -2.1222    2.8724    1.0078 S.2     1  LIG1       -0.0921
     18 H          -1.5212    5.2405    1.1627 H       1  LIG1        0.0697
     19 O           1.1626    2.1370   -0.9056 O.3     1  LIG1       -0.5053
     20 H           1.5878    2.8207   -1.4343 H       1  LIG1        0.2922
     21 C           1.0449    5.0728   -0.2293 C.3     1  LIG1       -0.0357
     22 H           0.7800    6.0441    0.1847 H       1  LIG1        0.0279
     23 H           1.1413    5.1845   -1.3131 H       1  LIG1        0.0279
     24 H           2.0117    4.7717    0.1788 H       1  LIG1        0.0279
@<TRIPOS>BOND
     1    20    19    1
     2    23    21    1
     3     6     1    1
     4    19    14    1
     5     5     1   ar
     6     5     4   ar
     7     1     2   ar
     8    14    15   ar
     9    14    13   ar
    10    21    15    1
    11    21    24    1
    12    21    22    1
    13     2     7    1
    14     2     3   ar
    15     8     7    1
    16    11     9    1
    17     4     3   ar
    18     4    13    1
    19    15    16   ar
    20     3     9    1
    21    13    17   ar
    22     9    10    1
    23     9    12    1
    24    16    17   ar
    25    16    18    1
