@<TRIPOS>MOLECULE
mol_data/opt/m06hf/geoms/mol2/5fi5fi-5fi5fi-.out
 46 49 0 0 0
SMALL
GASTEIGER

@<TRIPOS>ATOM
      1 C          -1.3785   -1.7028   -1.9607 C.ar    1  LIG1        0.0180
      2 C          -0.7300   -1.8547   -0.7797 C.ar    1  LIG1        0.1273
      3 C          -0.4208   -0.6117   -0.1160 C.ar    1  LIG1        0.0064
      4 C          -0.8389    0.4547   -0.8575 C.ar    1  LIG1        0.0359
      5 S          -1.6177   -0.0360   -2.3287 S.2     1  LIG1       -0.0920
      6 H          -1.7179   -2.4852   -2.6177 H       1  LIG1        0.0730
      7 O          -0.4470   -3.0785   -0.2431 O.3     1  LIG1       -0.5060
      8 H           0.3365   -3.0139    0.3131 H       1  LIG1        0.2922
      9 C           0.2358   -0.5486    1.2410 C.3     1  LIG1       -0.0351
     10 H           0.0157    0.4086    1.7122 H       1  LIG1        0.0279
     11 H           1.3210   -0.6340    1.1542 H       1  LIG1        0.0279
     12 H          -0.1490   -1.3517    1.8737 H       1  LIG1        0.0279
     13 C          -0.6850    1.8716   -0.5277 C.ar    1  LIG1        0.0685
     14 C           0.4474    2.4963   -0.0937 C.ar    1  LIG1        0.1356
     15 C           0.2910    3.9043    0.1589 C.ar    1  LIG1        0.0070
     16 C          -0.9775    4.3153   -0.1345 C.ar    1  LIG1        0.0365
     17 S          -1.9875    3.0074   -0.6690 S.2     1  LIG1       -0.0831
     18 O           1.6194    1.8271    0.1170 O.3     1  LIG1       -0.5053
     19 H           2.3599    2.3917   -0.1322 H       1  LIG1        0.2922
     20 C           1.4010    4.7620    0.7155 C.3     1  LIG1       -0.0351
     21 H           0.9754    5.6239    1.2285 H       1  LIG1        0.0279
     22 H           2.0440    5.1368   -0.0836 H       1  LIG1        0.0279
     23 H           1.9919    4.1790    1.4247 H       1  LIG1        0.0279
     24 C          -1.5056    5.6747   -0.0275 C.ar    1  LIG1        0.0685
     25 C          -0.9097    6.8236   -0.4605 C.ar    1  LIG1        0.1356
     26 C          -1.6630    8.0201   -0.1948 C.ar    1  LIG1        0.0070
     27 C          -2.8500    7.7250    0.4106 C.ar    1  LIG1        0.0365
     28 S          -3.0425    6.0259    0.6946 S.2     1  LIG1       -0.0831
     29 O           0.3141    6.8309   -1.0638 O.3     1  LIG1       -0.5053
     30 H           0.3482    7.5379   -1.7181 H       1  LIG1        0.2922
     31 C          -1.1474    9.3989   -0.5260 C.3     1  LIG1       -0.0351
     32 H          -1.6448   10.1374    0.1014 H       1  LIG1        0.0279
     33 H          -1.3546    9.6545   -1.5671 H       1  LIG1        0.0279
     34 H          -0.0719    9.4410   -0.3424 H       1  LIG1        0.0279
     35 C          -3.8982    8.6662    0.8052 C.ar    1  LIG1        0.0679
     36 C          -4.4181    9.6810    0.0556 C.ar    1  LIG1        0.1350
     37 C          -5.4657   10.4193    0.7146 C.ar    1  LIG1       -0.0014
     38 C          -5.7081    9.9146    1.9524 C.ar    1  LIG1       -0.0172
     39 S          -4.6852    8.5892    2.3486 S.2     1  LIG1       -0.0921
     40 H          -6.4370   10.2668    2.6654 H       1  LIG1        0.0697
     41 O          -3.9686    9.9675   -1.1987 O.3     1  LIG1       -0.5053
     42 H          -4.6614   10.4041   -1.7061 H       1  LIG1        0.2922
     43 C          -6.1727   11.5885    0.0699 C.3     1  LIG1       -0.0357
     44 H          -6.8800   12.0303    0.7697 H       1  LIG1        0.0279
     45 H          -6.7303   11.2705   -0.8156 H       1  LIG1        0.0279
     46 H          -5.4520   12.3536   -0.2258 H       1  LIG1        0.0279
@<TRIPOS>BOND
     1     6     1    1
     2     5     1   ar
     3     5     4   ar
     4     1     2   ar
     5    30    29    1
     6    42    41    1
     7    33    31    1
     8    41    36    1
     9    29    25    1
    10     4    13    1
    11     4     3   ar
    12    45    43    1
    13     2     7    1
    14     2     3   ar
    15    17    13   ar
    16    17    16   ar
    17    13    14   ar
    18    31    34    1
    19    31    26    1
    20    31    32    1
    21    25    26   ar
    22    25    24   ar
    23     7     8    1
    24    46    43    1
    25    26    27   ar
    26    16    24    1
    27    16    15   ar
    28    19    18    1
    29     3     9    1
    30    14    18    1
    31    14    15   ar
    32    22    20    1
    33    24    28   ar
    34    36    37   ar
    35    36    35   ar
    36    43    37    1
    37    43    44    1
    38    15    20    1
    39    27    28   ar
    40    27    35    1
    41    37    38   ar
    42    20    21    1
    43    20    23    1
    44    35    39   ar
    45    11     9    1
    46     9    10    1
    47     9    12    1
    48    38    39   ar
    49    38    40    1
