@<TRIPOS>MOLECULE
mol_data/opt/m06hf/geoms/mol2/5fi5fi5fi5fi.out
 46 49 0 0 0
SMALL
GASTEIGER

@<TRIPOS>ATOM
      1 C          -1.3627   -1.7064   -1.9622 C.ar    1  LIG1        0.0180
      2 C          -0.7215   -1.8557   -0.7769 C.ar    1  LIG1        0.1273
      3 C          -0.4170   -0.6113   -0.1137 C.ar    1  LIG1        0.0064
      4 C          -0.8310    0.4535   -0.8598 C.ar    1  LIG1        0.0359
      5 S          -1.6004   -0.0404   -2.3349 S.2     1  LIG1       -0.0920
      6 H          -1.6977   -2.4902   -2.6199 H       1  LIG1        0.0730
      7 O          -0.4412   -3.0783   -0.2363 O.3     1  LIG1       -0.5060
      8 H           0.3388   -3.0122    0.3247 H       1  LIG1        0.2922
      9 C           0.2310   -0.5453    1.2473 C.3     1  LIG1       -0.0351
     10 H           0.0076    0.4127    1.7153 H       1  LIG1        0.0279
     11 H           1.3168   -0.6303    1.1674 H       1  LIG1        0.0279
     12 H          -0.1572   -1.3474    1.8791 H       1  LIG1        0.0279
     13 C          -0.6799    1.8711   -0.5317 C.ar    1  LIG1        0.0685
     14 C           0.4494    2.4972   -0.0919 C.ar    1  LIG1        0.1356
     15 C           0.2908    3.9056    0.1571 C.ar    1  LIG1        0.0070
     16 C          -0.9761    4.3154   -0.1450 C.ar    1  LIG1        0.0365
     17 S          -1.9821    3.0059   -0.6833 S.2     1  LIG1       -0.0831
     18 O           1.6204    1.8290    0.1274 O.3     1  LIG1       -0.5053
     19 H           2.3622    2.3935   -0.1184 H       1  LIG1        0.2922
     20 C           1.3969    4.7649    0.7189 C.3     1  LIG1       -0.0351
     21 H           0.9676    5.6275    1.2277 H       1  LIG1        0.0279
     22 H           2.0446    5.1386   -0.0769 H       1  LIG1        0.0279
     23 H           1.9837    4.1836    1.4328 H       1  LIG1        0.0279
     24 C          -1.5056    5.6747   -0.0439 C.ar    1  LIG1        0.0685
     25 C          -0.9075    6.8231   -0.4754 C.ar    1  LIG1        0.1356
     26 C          -1.6631    8.0197   -0.2166 C.ar    1  LIG1        0.0070
     27 C          -2.8537    7.7251    0.3820 C.ar    1  LIG1        0.0365
     28 S          -3.0471    6.0265    0.6680 S.2     1  LIG1       -0.0831
     29 O           0.3200    6.8299   -1.0710 O.3     1  LIG1       -0.5053
     30 H           0.3578    7.5356   -1.7265 H       1  LIG1        0.2922
     31 C          -1.1461    9.3981   -0.5472 C.3     1  LIG1       -0.0351
     32 H          -1.6478   10.1376    0.0757 H       1  LIG1        0.0279
     33 H          -1.3470    9.6517   -1.5901 H       1  LIG1        0.0279
     34 H          -0.0718    9.4411   -0.3570 H       1  LIG1        0.0279
     35 C          -3.9047    8.6665    0.7683 C.ar    1  LIG1        0.0679
     36 C          -4.4206    9.6797    0.0135 C.ar    1  LIG1        0.1350
     37 C          -5.4726   10.4187    0.6646 C.ar    1  LIG1       -0.0014
     38 C          -5.7224    9.9161    1.9018 C.ar    1  LIG1       -0.0172
     39 S          -4.7014    8.5921    2.3069 S.2     1  LIG1       -0.0921
     40 H          -6.4559   10.2693    2.6096 H       1  LIG1        0.0697
     41 O          -3.9634    9.9640   -1.2385 O.3     1  LIG1       -0.5053
     42 H          -4.6533   10.3993   -1.7510 H       1  LIG1        0.2922
     43 C          -6.1761   11.5863    0.0133 C.3     1  LIG1       -0.0357
     44 H          -6.8880   12.0290    0.7078 H       1  LIG1        0.0279
     45 H          -6.7280   11.2663   -0.8751 H       1  LIG1        0.0279
     46 H          -5.4540   12.3512   -0.2794 H       1  LIG1        0.0279
@<TRIPOS>BOND
     1     6     1    1
     2     5     1   ar
     3     5     4   ar
     4     1     2   ar
     5    42    41    1
     6    30    29    1
     7    33    31    1
     8    41    36    1
     9    29    25    1
    10    45    43    1
    11     4    13    1
    12     4     3   ar
    13     2     7    1
    14     2     3   ar
    15    17    13   ar
    16    17    16   ar
    17    31    34    1
    18    31    26    1
    19    31    32    1
    20    13    14   ar
    21    25    26   ar
    22    25    24   ar
    23    46    43    1
    24     7     8    1
    25    26    27   ar
    26    16    24    1
    27    16    15   ar
    28    19    18    1
    29     3     9    1
    30    14    18    1
    31    14    15   ar
    32    22    20    1
    33    24    28   ar
    34    43    37    1
    35    43    44    1
    36    36    37   ar
    37    36    35   ar
    38    15    20    1
    39    27    28   ar
    40    27    35    1
    41    37    38   ar
    42    20    21    1
    43    20    23    1
    44    35    39   ar
    45    11     9    1
    46     9    10    1
    47     9    12    1
    48    38    39   ar
    49    38    40    1
