@<TRIPOS>MOLECULE
mol_data/opt/m06hf/geoms/mol2/5fi5fi5fi-.out
 35 37 0 0 0
SMALL
GASTEIGER

@<TRIPOS>ATOM
      1 C          -1.8341   -1.7650   -1.2658 C.ar    1  LIG1        0.0180
      2 C          -0.7836   -1.8621   -0.4139 C.ar    1  LIG1        0.1273
      3 C          -0.3133   -0.5925    0.0835 C.ar    1  LIG1        0.0064
      4 C          -1.0327    0.4370   -0.4494 C.ar    1  LIG1        0.0359
      5 S          -2.2816   -0.1200   -1.5164 S.2     1  LIG1       -0.0920
      6 H          -2.3540   -2.5762   -1.7459 H       1  LIG1        0.0730
      7 O          -0.2560   -3.0598   -0.0257 O.3     1  LIG1       -0.5060
      8 H           0.6591   -2.9364    0.2477 H       1  LIG1        0.2922
      9 C           0.8002   -0.4701    1.0947 C.3     1  LIG1       -0.0351
     10 H           0.7256    0.4864    1.6107 H       1  LIG1        0.0279
     11 H           1.7771   -0.5109    0.6087 H       1  LIG1        0.0279
     12 H           0.7192   -1.2735    1.8307 H       1  LIG1        0.0279
     13 C          -0.8312    1.8669   -0.2127 C.ar    1  LIG1        0.0685
     14 C           0.3520    2.5452   -0.2469 C.ar    1  LIG1        0.1356
     15 C           0.2401    3.9520    0.0331 C.ar    1  LIG1        0.0070
     16 C          -1.0612    4.3054    0.2437 C.ar    1  LIG1        0.0365
     17 S          -2.1380    2.9503    0.1457 S.2     1  LIG1       -0.0831
     18 O           1.5439    1.9248   -0.4913 O.3     1  LIG1       -0.5053
     19 H           2.1067    2.5032   -1.0183 H       1  LIG1        0.2922
     20 C           1.4373    4.8676    0.1032 C.3     1  LIG1       -0.0351
     21 H           1.1983    5.7390    0.7117 H       1  LIG1        0.0279
     22 H           1.7155    5.2225   -0.8913 H       1  LIG1        0.0279
     23 H           2.2779    4.3363    0.5539 H       1  LIG1        0.0279
     24 C          -1.5727    5.6500    0.5104 C.ar    1  LIG1        0.0679
     25 C          -1.2661    6.7910   -0.1720 C.ar    1  LIG1        0.1350
     26 C          -1.9476    7.9653    0.3110 C.ar    1  LIG1       -0.0014
     27 C          -2.7643    7.6574    1.3515 C.ar    1  LIG1       -0.0172
     28 S          -2.7113    5.9905    1.7772 S.2     1  LIG1       -0.0921
     29 H          -3.3950    8.3365    1.9037 H       1  LIG1        0.0697
     30 O          -0.3853    6.8049   -1.2112 O.3     1  LIG1       -0.5053
     31 H          -0.5600    7.5611   -1.7820 H       1  LIG1        0.2922
     32 C          -1.7534    9.3331   -0.3009 C.3     1  LIG1       -0.0357
     33 H          -2.3267   10.0759    0.2510 H       1  LIG1        0.0279
     34 H          -2.0959    9.3487   -1.3396 H       1  LIG1        0.0279
     35 H          -0.6995    9.6177   -0.2742 H       1  LIG1        0.0279
@<TRIPOS>BOND
     1    31    30    1
     2     6     1    1
     3     5     1   ar
     4     5     4   ar
     5    34    32    1
     6     1     2   ar
     7    30    25    1
     8    19    18    1
     9    22    20    1
    10    18    14    1
    11     4    13    1
    12     4     3   ar
    13     2     7    1
    14     2     3   ar
    15    32    35    1
    16    32    33    1
    17    32    26    1
    18    14    13   ar
    19    14    15   ar
    20    13    17   ar
    21    25    26   ar
    22    25    24   ar
    23     7     8    1
    24    15    20    1
    25    15    16   ar
    26     3     9    1
    27    20    23    1
    28    20    21    1
    29    17    16   ar
    30    16    24    1
    31    26    27   ar
    32    24    28   ar
    33    11     9    1
    34     9    10    1
    35     9    12    1
    36    27    28   ar
    37    27    29    1
