@<TRIPOS>MOLECULE
mol_data/opt/m06hf/geoms/mol2/5fl.out
 14 14 0 0 0
SMALL
GASTEIGER

@<TRIPOS>ATOM
      1 C          -2.2381   -1.6865    0.0002 C.ar    1  LIG1        0.0209
      2 C          -0.8845   -1.7824   -0.0003 C.ar    1  LIG1        0.1656
      3 C          -0.2495   -0.4729   -0.0003 C.ar    1  LIG1        0.1683
      4 C          -1.1641    0.5304    0.0003 C.ar    1  LIG1        0.0211
      5 S          -2.7795   -0.0545    0.0007 S.2     1  LIG1       -0.0976
      6 H          -2.9252   -2.5148    0.0004 H       1  LIG1        0.0731
      7 H          -0.9386    1.5831    0.0004 H       1  LIG1        0.0731
      8 O          -0.2842   -3.0120   -0.0007 O.3     1  LIG1       -0.5029
      9 H           0.6704   -2.9433   -0.0009 H       1  LIG1        0.2923
     10 O           1.0807   -0.1587   -0.0007 O.3     1  LIG1       -0.4909
     11 C           2.0543   -1.1794   -0.0011 C.3     1  LIG1        0.0790
     12 H           3.0163   -0.6736   -0.0012 H       1  LIG1        0.0660
     13 H           1.9846   -1.7932    0.9038 H       1  LIG1        0.0660
     14 H           1.9843   -1.7929   -0.9062 H       1  LIG1        0.0660
@<TRIPOS>BOND
     1    14    11    1
     2    12    11    1
     3    11    10    1
     4    11    13    1
     5     9     8    1
     6    10     3    1
     7     8     2    1
     8     2     3   ar
     9     2     1   ar
    10     3     4   ar
    11     1     6    1
    12     1     5   ar
    13     4     7    1
    14     4     5   ar
