@<TRIPOS>MOLECULE
mol_data/opt/m06hf/geoms/mol2/5fl5fl-5fl.out
 38 40 0 0 0
SMALL
GASTEIGER

@<TRIPOS>ATOM
      1 C          -2.5015   -1.8967    0.9159 C.ar    1  LIG1        0.0215
      2 C          -1.3756   -2.1938    0.2272 C.ar    1  LIG1        0.1663
      3 C          -0.5696   -1.0342   -0.0663 C.ar    1  LIG1        0.1766
      4 C          -1.1163    0.1242    0.3948 C.ar    1  LIG1        0.0749
      5 S          -2.6087   -0.1987    1.2257 S.2     1  LIG1       -0.0885
      6 H          -3.2711   -2.5766    1.2385 H       1  LIG1        0.0731
      7 O          -0.9967   -3.4297   -0.1951 O.3     1  LIG1       -0.5029
      8 H          -0.3873   -3.3050   -0.9362 H       1  LIG1        0.2923
      9 O           0.5770   -1.1767   -0.7896 O.3     1  LIG1       -0.4903
     10 C           1.6793   -1.6639   -0.0048 C.3     1  LIG1        0.0790
     11 H           2.5144   -1.7599   -0.6950 H       1  LIG1        0.0660
     12 H           1.9094   -0.9443    0.7771 H       1  LIG1        0.0660
     13 H           1.4291   -2.6362    0.4247 H       1  LIG1        0.0660
     14 C          -0.6322    1.4953    0.2365 C.ar    1  LIG1        0.0753
     15 C           0.6141    1.9886    0.4478 C.ar    1  LIG1        0.1748
     16 C           0.7241    3.4004    0.1740 C.ar    1  LIG1        0.1773
     17 C          -0.4502    3.9619   -0.2261 C.ar    1  LIG1        0.0755
     18 S          -1.7075    2.7584   -0.2998 S.2     1  LIG1       -0.0794
     19 O           1.6918    1.2963    0.8788 O.3     1  LIG1       -0.5025
     20 H           2.4272    1.9233    0.9412 H       1  LIG1        0.2923
     21 O           1.9558    3.9348    0.3524 O.3     1  LIG1       -0.4903
     22 C           2.3524    5.0204   -0.4869 C.3     1  LIG1        0.0790
     23 H           3.4392    4.9907   -0.5162 H       1  LIG1        0.0660
     24 H           1.9417    4.8813   -1.4883 H       1  LIG1        0.0660
     25 H           2.0116    5.9609   -0.0589 H       1  LIG1        0.0660
     26 C          -0.7641    5.3646   -0.4978 C.ar    1  LIG1        0.0747
     27 C          -0.4844    6.4358    0.2878 C.ar    1  LIG1        0.1742
     28 C          -0.9931    7.6732   -0.2495 C.ar    1  LIG1        0.1689
     29 C          -1.6607    7.5120   -1.4184 C.ar    1  LIG1        0.0218
     30 S          -1.6599    5.8512   -1.9108 S.2     1  LIG1       -0.0885
     31 H          -2.1479    8.2589   -2.0225 H       1  LIG1        0.0731
     32 O           0.2126    6.3973    1.4461 O.3     1  LIG1       -0.5025
     33 H           0.1846    7.2787    1.8429 H       1  LIG1        0.2923
     34 O          -0.7613    8.7883    0.4860 O.3     1  LIG1       -0.4909
     35 C          -1.3353    9.9877   -0.0087 C.3     1  LIG1        0.0790
     36 H          -1.0750   10.7683    0.7002 H       1  LIG1        0.0660
     37 H          -0.9217   10.2200   -0.9926 H       1  LIG1        0.0660
     38 H          -2.4208    9.8817   -0.0729 H       1  LIG1        0.0660
@<TRIPOS>BOND
     1    31    29    1
     2    30    29   ar
     3    30    26   ar
     4    24    22    1
     5    29    28   ar
     6    37    35    1
     7     8     7    1
     8     9     3    1
     9     9    10    1
    10    11    10    1
    11    23    22    1
    12    26    17    1
    13    26    27   ar
    14    22    25    1
    15    22    21    1
    16    18    17   ar
    17    18    14   ar
    18    28    27   ar
    19    28    34    1
    20    17    16   ar
    21     7     2    1
    22    38    35    1
    23     3     2   ar
    24     3     4   ar
    25    35    34    1
    26    35    36    1
    27    10    13    1
    28    10    12    1
    29    16    21    1
    30    16    15   ar
    31     2     1   ar
    32    14     4    1
    33    14    15   ar
    34    27    32    1
    35     4     5   ar
    36    15    19    1
    37    19    20    1
    38     1     5   ar
    39     1     6    1
    40    32    33    1
