@<TRIPOS>MOLECULE
mol_data/opt/m06hf/geoms/mol2/5fl5fl5fl-5fl.out
 50 53 0 0 0
SMALL
GASTEIGER

@<TRIPOS>ATOM
      1 C          -2.2146   -1.9155    1.7756 C.ar    1  LIG1        0.0215
      2 C          -1.4498   -2.1711    0.6897 C.ar    1  LIG1        0.1663
      3 C          -0.7579   -1.0045    0.1988 C.ar    1  LIG1        0.1766
      4 C          -1.0331    0.1186    0.9168 C.ar    1  LIG1        0.0749
      5 S          -2.1123   -0.2484    2.2288 S.2     1  LIG1       -0.0885
      6 H          -2.8384   -2.6072    2.3156 H       1  LIG1        0.0731
      7 O          -1.3237   -3.3715    0.0616 O.3     1  LIG1       -0.5029
      8 H          -1.0506   -3.1900   -0.8484 H       1  LIG1        0.2923
      9 O           0.0234   -1.0958   -0.9143 O.3     1  LIG1       -0.4903
     10 C           1.3014   -1.7005   -0.6514 C.3     1  LIG1        0.0790
     11 H           1.8267   -1.7097   -1.6034 H       1  LIG1        0.0660
     12 H           1.8411   -1.0995    0.0759 H       1  LIG1        0.0660
     13 H           1.1618   -2.7198   -0.2848 H       1  LIG1        0.0660
     14 C          -0.5868    1.4882    0.6665 C.ar    1  LIG1        0.0753
     15 C           0.6491    1.9277    0.3191 C.ar    1  LIG1        0.1748
     16 C           0.7090    3.3524    0.0980 C.ar    1  LIG1        0.1773
     17 C          -0.4839    3.9777    0.2971 C.ar    1  LIG1        0.0755
     18 S          -1.7106    2.8206    0.7416 S.2     1  LIG1       -0.0794
     19 O           1.7616    1.1739    0.1760 O.3     1  LIG1       -0.5025
     20 H           2.4766    1.7697   -0.0905 H       1  LIG1        0.2923
     21 O           1.9224    3.8199   -0.2793 O.3     1  LIG1       -0.4903
     22 C           1.9877    5.0421   -1.0123 C.3     1  LIG1        0.0790
     23 H           2.9617    5.0418   -1.4951 H       1  LIG1        0.0660
     24 H           1.1918    5.0682   -1.7593 H       1  LIG1        0.0660
     25 H           1.9029    5.8851   -0.3295 H       1  LIG1        0.0660
     26 C          -0.8305    5.3992    0.2284 C.ar    1  LIG1        0.0753
     27 C          -0.2513    6.4353    0.8849 C.ar    1  LIG1        0.1748
     28 C          -0.8490    7.7130    0.5827 C.ar    1  LIG1        0.1773
     29 C          -1.8981    7.6203   -0.2819 C.ar    1  LIG1        0.0755
     30 S          -2.1461    5.9612   -0.7660 S.2     1  LIG1       -0.0794
     31 O           0.8204    6.3488    1.7040 O.3     1  LIG1       -0.5025
     32 H           0.9773    7.2315    2.0695 H       1  LIG1        0.2923
     33 O          -0.2799    8.7786    1.1935 O.3     1  LIG1       -0.4903
     34 C          -0.3301   10.0448    0.5364 C.3     1  LIG1        0.0790
     35 H           0.4843   10.6282    0.9588 H       1  LIG1        0.0660
     36 H          -0.1842    9.9088   -0.5371 H       1  LIG1        0.0660
     37 H          -1.2844   10.5275    0.7365 H       1  LIG1        0.0660
     38 C          -2.8227    8.6571   -0.7417 C.ar    1  LIG1        0.0747
     39 C          -3.5105    9.5418    0.0241 C.ar    1  LIG1        0.1742
     40 C          -4.3975   10.3795   -0.7441 C.ar    1  LIG1        0.1689
     41 C          -4.3782   10.1010   -2.0707 C.ar    1  LIG1        0.0218
     42 S          -3.2537    8.8315   -2.4230 S.2     1  LIG1       -0.0885
     43 H          -4.9450   10.5610   -2.8625 H       1  LIG1        0.0731
     44 O          -3.3943    9.6754    1.3643 O.3     1  LIG1       -0.5025
     45 H          -4.0745   10.2940    1.6649 H       1  LIG1        0.2923
     46 O          -5.1231   11.2844   -0.0431 O.3     1  LIG1       -0.4909
     47 C          -6.0728   12.0330   -0.7860 C.3     1  LIG1        0.0790
     48 H          -6.5748   12.6826   -0.0752 H       1  LIG1        0.0660
     49 H          -5.5642   12.6306   -1.5462 H       1  LIG1        0.0660
     50 H          -6.7920   11.3592   -1.2568 H       1  LIG1        0.0660
@<TRIPOS>BOND
     1    43    41    1
     2    42    41   ar
     3    42    38   ar
     4    41    40   ar
     5    24    22    1
     6    11    10    1
     7    49    47    1
     8    23    22    1
     9    50    47    1
    10    22    25    1
    11    22    21    1
    12     9    10    1
    13     9     3    1
    14     8     7    1
    15    47    48    1
    16    47    46    1
    17    30    29   ar
    18    30    26   ar
    19    40    46    1
    20    40    39   ar
    21    38    29    1
    22    38    39   ar
    23    10    13    1
    24    10    12    1
    25    36    34    1
    26    29    28   ar
    27    21    16    1
    28    20    19    1
    29    39    44    1
    30     7     2    1
    31    16    17   ar
    32    16    15   ar
    33    19    15    1
    34     3     2   ar
    35     3     4   ar
    36    26    17    1
    37    26    27   ar
    38    17    18   ar
    39    15    14   ar
    40    34    37    1
    41    34    35    1
    42    34    33    1
    43    28    27   ar
    44    28    33    1
    45    14    18   ar
    46    14     4    1
    47     2     1   ar
    48    27    31    1
    49     4     5   ar
    50    44    45    1
    51    31    32    1
    52     1     5   ar
    53     1     6    1
