@<TRIPOS>MOLECULE
mol_data/opt/m06hf/geoms/mol2/5fl5fl-5fl5fl.out
 50 53 0 0 0
SMALL
GASTEIGER

@<TRIPOS>ATOM
      1 C          -2.2887   -1.9847    1.1868 C.ar    1  LIG1        0.0215
      2 C          -1.2328   -2.1428    0.3556 C.ar    1  LIG1        0.1663
      3 C          -0.5396   -0.9084    0.0827 C.ar    1  LIG1        0.1766
      4 C          -1.1046    0.1658    0.7014 C.ar    1  LIG1        0.0749
      5 S          -2.4661   -0.3313    1.6599 S.2     1  LIG1       -0.0885
      6 H          -2.9720   -2.7424    1.5297 H       1  LIG1        0.0731
      7 O          -0.8324   -3.3131   -0.2106 O.3     1  LIG1       -0.5029
      8 H          -0.3581   -3.0946   -1.0245 H       1  LIG1        0.2923
      9 O           0.5240   -0.8941   -0.7682 O.3     1  LIG1       -0.4903
     10 C           1.7256   -1.4118   -0.1717 C.3     1  LIG1        0.0790
     11 H           2.4931   -1.3386   -0.9381 H       1  LIG1        0.0660
     12 H           1.9901   -0.8049    0.6905 H       1  LIG1        0.0660
     13 H           1.5776   -2.4533    0.1206 H       1  LIG1        0.0660
     14 C          -0.7332    1.5736    0.5895 C.ar    1  LIG1        0.0753
     15 C           0.5060    2.1336    0.5630 C.ar    1  LIG1        0.1748
     16 C           0.4631    3.5578    0.4158 C.ar    1  LIG1        0.1773
     17 C          -0.7934    4.0814    0.3502 C.ar    1  LIG1        0.0755
     18 S          -1.9619    2.8034    0.4456 S.2     1  LIG1       -0.0794
     19 O           1.6875    1.4793    0.6649 O.3     1  LIG1       -0.5025
     20 H           2.3745    2.1388    0.8351 H       1  LIG1        0.2923
     21 O           1.6427    4.2690    0.3682 O.3     1  LIG1       -0.4903
     22 C           2.0239    4.6508   -0.9685 C.3     1  LIG1        0.0790
     23 H           2.9598    5.1942   -0.8701 H       1  LIG1        0.0660
     24 H           2.1564    3.7514   -1.5705 H       1  LIG1        0.0660
     25 H           1.2511    5.2878   -1.3988 H       1  LIG1        0.0660
     26 C          -1.1698    5.4860    0.2338 C.ar    1  LIG1        0.0753
     27 C          -0.4662    6.5761    0.6726 C.ar    1  LIG1        0.1748
     28 C          -1.1653    7.8168    0.4307 C.ar    1  LIG1        0.1773
     29 C          -2.3728    7.6377   -0.1691 C.ar    1  LIG1        0.0755
     30 S          -2.6968    5.9583   -0.4634 S.2     1  LIG1       -0.0794
     31 O           0.7355    6.6108    1.2784 O.3     1  LIG1       -0.5025
     32 H           1.1839    5.7483    1.2004 H       1  LIG1        0.2923
     33 O          -0.6509    9.0221    0.7718 O.3     1  LIG1       -0.4903
     34 C           0.4297    9.4291   -0.0681 C.3     1  LIG1        0.0790
     35 H           0.7500   10.3997    0.3014 H       1  LIG1        0.0660
     36 H           1.2482    8.7113    0.0000 H       1  LIG1        0.0660
     37 H           0.0813    9.5153   -1.0998 H       1  LIG1        0.0660
     38 C          -3.3235    8.6807   -0.5411 C.ar    1  LIG1        0.0747
     39 C          -3.7429    9.7168    0.2305 C.ar    1  LIG1        0.1742
     40 C          -4.7113   10.5490   -0.4449 C.ar    1  LIG1        0.1689
     41 C          -5.0088   10.1230   -1.6964 C.ar    1  LIG1        0.0218
     42 S          -4.1012    8.7044   -2.1018 S.2     1  LIG1       -0.0885
     43 H          -5.6972   10.5496   -2.4060 H       1  LIG1        0.0731
     44 O          -3.3640    9.9649    1.4974 O.3     1  LIG1       -0.5025
     45 H          -3.8502   10.7392    1.8108 H       1  LIG1        0.2923
     46 O          -5.1924   11.6018    0.2611 O.3     1  LIG1       -0.4909
     47 C          -6.1971   12.3698   -0.3794 C.3     1  LIG1        0.0790
     48 H          -6.4796   13.1514    0.3202 H       1  LIG1        0.0660
     49 H          -5.8015   12.8118   -1.2967 H       1  LIG1        0.0660
     50 H          -7.0588   11.7385   -0.6087 H       1  LIG1        0.0660
@<TRIPOS>BOND
     1    43    41    1
     2    42    41   ar
     3    42    38   ar
     4    41    40   ar
     5    24    22    1
     6    25    22    1
     7    49    47    1
     8    37    34    1
     9     8     7    1
    10    22    23    1
    11    22    21    1
    12    11    10    1
    13     9    10    1
    14     9     3    1
    15    50    47    1
    16    38    29    1
    17    38    39   ar
    18    30    29   ar
    19    30    26   ar
    20    40    39   ar
    21    40    46    1
    22    47    46    1
    23    47    48    1
    24     7     2    1
    25    10    13    1
    26    10    12    1
    27    29    28   ar
    28    34    36    1
    29    34    35    1
    30    34    33    1
    31     3     2   ar
    32     3     4   ar
    33    39    44    1
    34    26    17    1
    35    26    27   ar
    36    17    16   ar
    37    17    18   ar
    38     2     1   ar
    39    21    16    1
    40    16    15   ar
    41    28    27   ar
    42    28    33    1
    43    18    14   ar
    44    15    14   ar
    45    15    19    1
    46    14     4    1
    47    19    20    1
    48    27    31    1
    49     4     5   ar
    50     1     6    1
    51     1     5   ar
    52    32    31    1
    53    44    45    1
