@<TRIPOS>MOLECULE
mol_data/opt/m06hf/geoms/mol2/5fl5fl-5fl5fl-.out
 50 53 0 0 0
SMALL
GASTEIGER

@<TRIPOS>ATOM
      1 C          -2.1969   -1.9146    1.8087 C.ar    1  LIG1        0.0215
      2 C          -1.4313   -2.1702    0.7233 C.ar    1  LIG1        0.1663
      3 C          -0.7423   -1.0026    0.2305 C.ar    1  LIG1        0.1766
      4 C          -1.0205    0.1210    0.9465 C.ar    1  LIG1        0.0749
      5 S          -2.0990   -0.2465    2.2589 S.2     1  LIG1       -0.0885
      6 H          -2.8191   -2.6069    2.3497 H       1  LIG1        0.0731
      7 O          -1.3020   -3.3713    0.0973 O.3     1  LIG1       -0.5029
      8 H          -1.0289   -3.1907   -0.8128 H       1  LIG1        0.2923
      9 O           0.0394   -1.0939   -0.8823 O.3     1  LIG1       -0.4903
     10 C           1.3189   -1.6948   -0.6181 C.3     1  LIG1        0.0790
     11 H           1.8444   -1.7044   -1.5701 H       1  LIG1        0.0660
     12 H           1.8569   -1.0911    0.1082 H       1  LIG1        0.0660
     13 H           1.1818   -2.7139   -0.2498 H       1  LIG1        0.0660
     14 C          -0.5776    1.4913    0.6938 C.ar    1  LIG1        0.0753
     15 C           0.6572    1.9333    0.3462 C.ar    1  LIG1        0.1748
     16 C           0.7137    3.3578    0.1226 C.ar    1  LIG1        0.1773
     17 C          -0.4809    3.9804    0.3200 C.ar    1  LIG1        0.0755
     18 S          -1.7049    2.8210    0.7659 S.2     1  LIG1       -0.0794
     19 O           1.7717    1.1821    0.2049 O.3     1  LIG1       -0.5025
     20 H           2.4853    1.7793   -0.0623 H       1  LIG1        0.2923
     21 O           1.9261    3.8276   -0.2551 O.3     1  LIG1       -0.4903
     22 C           1.9886    5.0486   -0.9904 C.3     1  LIG1        0.0790
     23 H           2.9628    5.0499   -1.4727 H       1  LIG1        0.0660
     24 H           1.1930    5.0712   -1.7378 H       1  LIG1        0.0660
     25 H           1.9013    5.8927   -0.3092 H       1  LIG1        0.0660
     26 C          -0.8311    5.4009    0.2486 C.ar    1  LIG1        0.0753
     27 C          -0.2548    6.4397    0.9033 C.ar    1  LIG1        0.1748
     28 C          -0.8558    7.7152    0.5985 C.ar    1  LIG1        0.1773
     29 C          -1.9045    7.6183   -0.2661 C.ar    1  LIG1        0.0755
     30 S          -2.1480    5.9576   -0.7472 S.2     1  LIG1       -0.0794
     31 O           0.8168    6.3576    1.7229 O.3     1  LIG1       -0.5025
     32 H           0.9715    7.2414    2.0865 H       1  LIG1        0.2923
     33 O          -0.2896    8.7834    1.2076 O.3     1  LIG1       -0.4903
     34 C          -0.3437   10.0486    0.5487 C.3     1  LIG1        0.0790
     35 H           0.4690   10.6350    0.9701 H       1  LIG1        0.0660
     36 H          -0.1977    9.9116   -0.5246 H       1  LIG1        0.0660
     37 H          -1.2994   10.5287    0.7484 H       1  LIG1        0.0660
     38 C          -2.8319    8.6516   -0.7280 C.ar    1  LIG1        0.0747
     39 C          -3.5226    9.5355    0.0361 C.ar    1  LIG1        0.1742
     40 C          -4.4118   10.3694   -0.7338 C.ar    1  LIG1        0.1689
     41 C          -4.3913   10.0887   -2.0599 C.ar    1  LIG1        0.0218
     42 S          -3.2629    8.8220   -2.4097 S.2     1  LIG1       -0.0885
     43 H          -4.9591   10.5457   -2.8527 H       1  LIG1        0.0731
     44 O          -3.4072    9.6717    1.3762 O.3     1  LIG1       -0.5025
     45 H          -4.0900   10.2881    1.6756 H       1  LIG1        0.2923
     46 O          -5.1403   11.2732   -0.0345 O.3     1  LIG1       -0.4909
     47 C          -6.0919   12.0178   -0.7790 C.3     1  LIG1        0.0790
     48 H          -6.5960   12.6673   -0.0695 H       1  LIG1        0.0660
     49 H          -5.5848   12.6155   -1.5401 H       1  LIG1        0.0660
     50 H          -6.8091   11.3411   -1.2488 H       1  LIG1        0.0660
@<TRIPOS>BOND
     1    43    41    1
     2    42    41   ar
     3    42    38   ar
     4    41    40   ar
     5    24    22    1
     6    11    10    1
     7    49    47    1
     8    23    22    1
     9    50    47    1
    10    22    25    1
    11    22    21    1
    12     9    10    1
    13     9     3    1
    14     8     7    1
    15    47    48    1
    16    47    46    1
    17    30    29   ar
    18    30    26   ar
    19    40    46    1
    20    40    39   ar
    21    38    29    1
    22    38    39   ar
    23    10    13    1
    24    10    12    1
    25    36    34    1
    26    29    28   ar
    27    21    16    1
    28    20    19    1
    29    39    44    1
    30     7     2    1
    31    16    17   ar
    32    16    15   ar
    33    19    15    1
    34     3     2   ar
    35     3     4   ar
    36    26    17    1
    37    26    27   ar
    38    17    18   ar
    39    15    14   ar
    40    34    37    1
    41    34    35    1
    42    34    33    1
    43    28    27   ar
    44    28    33    1
    45    14    18   ar
    46    14     4    1
    47     2     1   ar
    48    27    31    1
    49     4     5   ar
    50    44    45    1
    51    31    32    1
    52     1     5   ar
    53     1     6    1
