@<TRIPOS>MOLECULE
mol_data/opt/m06hf/geoms/mol2/5fl5fl5fl-.out
 38 40 0 0 0
SMALL
GASTEIGER

@<TRIPOS>ATOM
      1 C          -2.5287   -1.9005    0.8175 C.ar    1  LIG1        0.0215
      2 C          -1.3874   -2.1936    0.1530 C.ar    1  LIG1        0.1663
      3 C          -0.5733   -1.0329   -0.1122 C.ar    1  LIG1        0.1766
      4 C          -1.1292    0.1226    0.3452 C.ar    1  LIG1        0.0749
      5 S          -2.6411   -0.2048    1.1383 S.2     1  LIG1       -0.0885
      6 H          -3.3065   -2.5819    1.1165 H       1  LIG1        0.0731
      7 O          -1.0002   -3.4267   -0.2702 O.3     1  LIG1       -0.5029
      8 H          -0.3735   -3.2969   -0.9958 H       1  LIG1        0.2923
      9 O           0.5898   -1.1712   -0.8096 O.3     1  LIG1       -0.4903
     10 C           1.6727   -1.6662   -0.0032 C.3     1  LIG1        0.0790
     11 H           2.5236   -1.7580   -0.6744 H       1  LIG1        0.0660
     12 H           1.8854   -0.9533    0.7896 H       1  LIG1        0.0660
     13 H           1.4113   -2.6417    0.4125 H       1  LIG1        0.0660
     14 C          -0.6398    1.4942    0.2094 C.ar    1  LIG1        0.0753
     15 C           0.6017    1.9840    0.4540 C.ar    1  LIG1        0.1748
     16 C           0.7199    3.3978    0.1944 C.ar    1  LIG1        0.1773
     17 C          -0.4440    3.9642   -0.2286 C.ar    1  LIG1        0.0755
     18 S          -1.7007    2.7631   -0.3418 S.2     1  LIG1       -0.0794
     19 O           1.6681    1.2868    0.9046 O.3     1  LIG1       -0.5025
     20 H           2.4026    1.9121    0.9896 H       1  LIG1        0.2923
     21 O           1.9477    3.9290    0.4063 O.3     1  LIG1       -0.4903
     22 C           2.3656    5.0207   -0.4144 C.3     1  LIG1        0.0790
     23 H           3.4528    4.9897   -0.4180 H       1  LIG1        0.0660
     24 H           1.9789    4.8902   -1.4265 H       1  LIG1        0.0660
     25 H           2.0158    5.9582    0.0128 H       1  LIG1        0.0660
     26 C          -0.7497    5.3695   -0.4961 C.ar    1  LIG1        0.0747
     27 C          -0.4871    6.4340    0.3044 C.ar    1  LIG1        0.1742
     28 C          -0.9814    7.6764   -0.2348 C.ar    1  LIG1        0.1689
     29 C          -1.6216    7.5256   -1.4202 C.ar    1  LIG1        0.0218
     30 S          -1.6115    5.8687   -1.9258 S.2     1  LIG1       -0.0885
     31 H          -2.0935    8.2780   -2.0295 H       1  LIG1        0.0731
     32 O           0.1827    6.3851    1.4783 O.3     1  LIG1       -0.5025
     33 H           0.1463    7.2633    1.8816 H       1  LIG1        0.2923
     34 O          -0.7654    8.7852    0.5149 O.3     1  LIG1       -0.4909
     35 C          -1.3261    9.9894    0.0166 C.3     1  LIG1        0.0790
     36 H          -1.0814   10.7639    0.7377 H       1  LIG1        0.0660
     37 H          -0.8892   10.2290   -0.9554 H       1  LIG1        0.0660
     38 H          -2.4098    9.8856   -0.0738 H       1  LIG1        0.0660
@<TRIPOS>BOND
     1    31    29    1
     2    30    29   ar
     3    30    26   ar
     4    24    22    1
     5    29    28   ar
     6     8     7    1
     7    37    35    1
     8     9     3    1
     9     9    10    1
    10    11    10    1
    11    26    17    1
    12    26    27   ar
    13    23    22    1
    14    22    25    1
    15    22    21    1
    16    18    17   ar
    17    18    14   ar
    18     7     2    1
    19    28    27   ar
    20    28    34    1
    21    17    16   ar
    22     3     2   ar
    23     3     4   ar
    24    38    35    1
    25    10    13    1
    26    10    12    1
    27    35    34    1
    28    35    36    1
    29     2     1   ar
    30    16    21    1
    31    16    15   ar
    32    14     4    1
    33    14    15   ar
    34    27    32    1
    35     4     5   ar
    36    15    19    1
    37     1     6    1
    38     1     5   ar
    39    19    20    1
    40    32    33    1
