@<TRIPOS>MOLECULE
mol_data/opt/m06hf/geoms/mol2/5fl5fl.out
 26 27 0 0 0
SMALL
GASTEIGER

@<TRIPOS>ATOM
      1 C          -2.4487   -1.8422    0.5011 C.ar    1  LIG1        0.0215
      2 C          -1.2057   -2.1522    0.0674 C.ar    1  LIG1        0.1663
      3 C          -0.3957   -0.9899   -0.2038 C.ar    1  LIG1        0.1766
      4 C          -1.0555    0.1801    0.0149 C.ar    1  LIG1        0.0749
      5 S          -2.6651   -0.1271    0.5903 S.2     1  LIG1       -0.0885
      6 H          -3.2425   -2.5236    0.7542 H       1  LIG1        0.0731
      7 O          -0.7168   -3.4059   -0.1303 O.3     1  LIG1       -0.5029
      8 H           0.0018   -3.3386   -0.7742 H       1  LIG1        0.2923
      9 O           0.8709   -1.1420   -0.6832 O.3     1  LIG1       -0.4903
     10 C           1.8163   -1.5080    0.3362 C.3     1  LIG1        0.0790
     11 H           2.7681   -1.6369   -0.1739 H       1  LIG1        0.0660
     12 H           1.8802   -0.7086    1.0705 H       1  LIG1        0.0660
     13 H           1.5106   -2.4435    0.8091 H       1  LIG1        0.0660
     14 C          -0.5835    1.5473   -0.2052 C.ar    1  LIG1        0.0747
     15 C           0.5738    2.1206    0.2108 C.ar    1  LIG1        0.1742
     16 C           0.6895    3.5012   -0.1894 C.ar    1  LIG1        0.1689
     17 C          -0.3779    3.9477   -0.8938 C.ar    1  LIG1        0.0218
     18 S          -1.5475    2.6874   -1.1054 S.2     1  LIG1       -0.0885
     19 H          -0.5518    4.9282   -1.3032 H       1  LIG1        0.0731
     20 O           1.5434    1.5307    0.9477 O.3     1  LIG1       -0.5025
     21 H           2.2287    2.1920    1.1179 H       1  LIG1        0.2923
     22 O           1.8163    4.1458    0.2057 O.3     1  LIG1       -0.4909
     23 C           1.8886    5.5235   -0.1237 C.3     1  LIG1        0.0790
     24 H           2.8261    5.8884    0.2857 H       1  LIG1        0.0660
     25 H           1.8776    5.6488   -1.2085 H       1  LIG1        0.0660
     26 H           1.0472    6.0571    0.3239 H       1  LIG1        0.0660
@<TRIPOS>BOND
     1    19    17    1
     2    25    23    1
     3    18    17   ar
     4    18    14   ar
     5    17    16   ar
     6     8     7    1
     7     9     3    1
     8     9    10    1
     9    14     4    1
    10    14    15   ar
    11     3     4   ar
    12     3     2   ar
    13    16    22    1
    14    16    15   ar
    15    11    10    1
    16     7     2    1
    17    23    22    1
    18    23    24    1
    19    23    26    1
    20     4     5   ar
    21     2     1   ar
    22    15    20    1
    23    10    13    1
    24    10    12    1
    25     1     5   ar
    26     1     6    1
    27    20    21    1
