@<TRIPOS>MOLECULE
mol_data/opt/m06hf/geoms/mol2/5fl5fl-.out
 26 27 0 0 0
SMALL
GASTEIGER

@<TRIPOS>ATOM
      1 C          -2.4503   -1.8439    0.4728 C.ar    1  LIG1        0.0215
      2 C          -1.2059   -2.1522    0.0416 C.ar    1  LIG1        0.1663
      3 C          -0.3950   -0.9888   -0.2223 C.ar    1  LIG1        0.1766
      4 C          -1.0556    0.1803   -0.0007 C.ar    1  LIG1        0.0749
      5 S          -2.6669   -0.1292    0.5681 S.2     1  LIG1       -0.0885
      6 H          -3.2448   -2.5265    0.7205 H       1  LIG1        0.0731
      7 O          -0.7165   -3.4050   -0.1595 O.3     1  LIG1       -0.5029
      8 H           0.0040   -3.3353   -0.8012 H       1  LIG1        0.2923
      9 O           0.8730   -1.1390   -0.6984 O.3     1  LIG1       -0.4903
     10 C           1.8149   -1.5100    0.3226 C.3     1  LIG1        0.0790
     11 H           2.7684   -1.6372   -0.1850 H       1  LIG1        0.0660
     12 H           1.8769   -0.7137    1.0605 H       1  LIG1        0.0660
     13 H           1.5071   -2.4474    0.7904 H       1  LIG1        0.0660
     14 C          -0.5831    1.5485   -0.2137 C.ar    1  LIG1        0.0747
     15 C           0.5743    2.1195    0.2055 C.ar    1  LIG1        0.1742
     16 C           0.6899    3.5023   -0.1876 C.ar    1  LIG1        0.1689
     17 C          -0.3775    3.9525   -0.8896 C.ar    1  LIG1        0.0218
     18 S          -1.5471    2.6934   -1.1075 S.2     1  LIG1       -0.0885
     19 H          -0.5513    4.9352   -1.2937 H       1  LIG1        0.0731
     20 O           1.5439    1.5259    0.9392 O.3     1  LIG1       -0.5025
     21 H           2.2292    2.1862    1.1127 H       1  LIG1        0.2923
     22 O           1.8169    4.1445    0.2108 O.3     1  LIG1       -0.4909
     23 C           1.8899    5.5238   -0.1123 C.3     1  LIG1        0.0790
     24 H           2.8276    5.8863    0.2986 H       1  LIG1        0.0660
     25 H           1.8787    5.6540   -1.1965 H       1  LIG1        0.0660
     26 H           1.0488    6.0558    0.3379 H       1  LIG1        0.0660
@<TRIPOS>BOND
     1    19    17    1
     2    25    23    1
     3    18    17   ar
     4    18    14   ar
     5    17    16   ar
     6     8     7    1
     7     9     3    1
     8     9    10    1
     9     3     4   ar
    10     3     2   ar
    11    14     4    1
    12    14    15   ar
    13    16    15   ar
    14    16    22    1
    15    11    10    1
    16     7     2    1
    17    23    22    1
    18    23    24    1
    19    23    26    1
    20     4     5   ar
    21     2     1   ar
    22    15    20    1
    23    10    13    1
    24    10    12    1
    25     1     5   ar
    26     1     6    1
    27    20    21    1
