@<TRIPOS>MOLECULE
mol_data/opt/m06hf/geoms/mol2/5fl5fl-5fl-5fl.out
 50 53 0 0 0
SMALL
GASTEIGER

@<TRIPOS>ATOM
      1 C          -2.1637   -1.9198    1.8075 C.ar    1  LIG1        0.0215
      2 C          -1.4102   -2.1720    0.7129 C.ar    1  LIG1        0.1663
      3 C          -0.7292   -1.0024    0.2142 C.ar    1  LIG1        0.1766
      4 C          -1.0011    0.1195    0.9353 C.ar    1  LIG1        0.0749
      5 S          -2.0638   -0.2522    2.2594 S.2     1  LIG1       -0.0885
      6 H          -2.7782   -2.6142    2.3545 H       1  LIG1        0.0731
      7 O          -1.2860   -3.3719    0.0834 O.3     1  LIG1       -0.5029
      8 H          -1.0238   -3.1892   -0.8295 H       1  LIG1        0.2923
      9 O           0.0398   -1.0903   -0.9077 O.3     1  LIG1       -0.4903
     10 C           1.3233   -1.6895   -0.6594 C.3     1  LIG1        0.0790
     11 H           1.8376   -1.6969   -1.6175 H       1  LIG1        0.0660
     12 H           1.8688   -1.0859    0.0614 H       1  LIG1        0.0660
     13 H           1.1923   -2.7092   -0.2909 H       1  LIG1        0.0660
     14 C          -0.5637    1.4910    0.6799 C.ar    1  LIG1        0.0753
     15 C           0.6662    1.9359    0.3184 C.ar    1  LIG1        0.1748
     16 C           0.7175    3.3608    0.0966 C.ar    1  LIG1        0.1773
     17 C          -0.4758    3.9809    0.3093 C.ar    1  LIG1        0.0755
     18 S          -1.6924    2.8185    0.7676 S.2     1  LIG1       -0.0794
     19 O           1.7802    1.1868    0.1625 O.3     1  LIG1       -0.5025
     20 H           2.4897    1.7858   -0.1117 H       1  LIG1        0.2923
     21 O           1.9245    3.8335   -0.2944 O.3     1  LIG1       -0.4903
     22 C           1.9763    5.0560   -1.0280 C.3     1  LIG1        0.0790
     23 H           2.9446    5.0599   -1.5219 H       1  LIG1        0.0660
     24 H           1.1717    5.0788   -1.7658 H       1  LIG1        0.0660
     25 H           1.8958    5.8986   -0.3442 H       1  LIG1        0.0660
     26 C          -0.8293    5.4008    0.2444 C.ar    1  LIG1        0.0753
     27 C          -0.2471    6.4395    0.8943 C.ar    1  LIG1        0.1748
     28 C          -0.8539    7.7146    0.5990 C.ar    1  LIG1        0.1773
     29 C          -1.9123    7.6173   -0.2535 C.ar    1  LIG1        0.0755
     30 S          -2.1585    5.9571   -0.7349 S.2     1  LIG1       -0.0794
     31 O           0.8343    6.3577    1.7010 O.3     1  LIG1       -0.5025
     32 H           0.9914    7.2410    2.0649 H       1  LIG1        0.2923
     33 O          -0.2825    8.7826    1.2035 O.3     1  LIG1       -0.4903
     34 C          -0.3463   10.0489    0.5476 C.3     1  LIG1        0.0790
     35 H           0.4700   10.6360    0.9609 H       1  LIG1        0.0660
     36 H          -0.2120    9.9141   -0.5276 H       1  LIG1        0.0660
     37 H          -1.3006   10.5268    0.7588 H       1  LIG1        0.0660
     38 C          -2.8466    8.6500   -0.7030 C.ar    1  LIG1        0.0747
     39 C          -3.5298    9.5314    0.0706 C.ar    1  LIG1        0.1742
     40 C          -4.4290   10.3654   -0.6876 C.ar    1  LIG1        0.1689
     41 C          -4.4231   10.0872   -2.0144 C.ar    1  LIG1        0.0218
     42 S          -3.2969    8.8228   -2.3794 S.2     1  LIG1       -0.0885
     43 H          -5.0006   10.5448   -2.7998 H       1  LIG1        0.0731
     44 O          -3.3993    9.6653    1.4095 O.3     1  LIG1       -0.5025
     45 H          -4.0795   10.2801    1.7179 H       1  LIG1        0.2923
     46 O          -5.1509   11.2668    0.0216 O.3     1  LIG1       -0.4909
     47 C          -6.1113   12.0121   -0.7108 C.3     1  LIG1        0.0790
     48 H          -6.6079   12.6598    0.0055 H       1  LIG1        0.0660
     49 H          -5.6132   12.6115   -1.4765 H       1  LIG1        0.0660
     50 H          -6.8332   11.3357   -1.1738 H       1  LIG1        0.0660
@<TRIPOS>BOND
     1    43    41    1
     2    42    41   ar
     3    42    38   ar
     4    41    40   ar
     5    24    22    1
     6    11    10    1
     7    23    22    1
     8    49    47    1
     9    50    47    1
    10    22    25    1
    11    22    21    1
    12     9    10    1
    13     9     3    1
    14     8     7    1
    15    30    29   ar
    16    30    26   ar
    17    47    48    1
    18    47    46    1
    19    38    29    1
    20    38    39   ar
    21    40    46    1
    22    40    39   ar
    23    10    13    1
    24    10    12    1
    25    36    34    1
    26    21    16    1
    27    29    28   ar
    28    20    19    1
    29    39    44    1
    30     7     2    1
    31    16    17   ar
    32    16    15   ar
    33    19    15    1
    34     3     2   ar
    35     3     4   ar
    36    26    17    1
    37    26    27   ar
    38    17    18   ar
    39    15    14   ar
    40    34    37    1
    41    34    35    1
    42    34    33    1
    43    28    27   ar
    44    28    33    1
    45    14    18   ar
    46    14     4    1
    47     2     1   ar
    48    27    31    1
    49     4     5   ar
    50    44    45    1
    51    31    32    1
    52     1     5   ar
    53     1     6    1
