@<TRIPOS>MOLECULE
mol_data/opt/m06hf/geoms/mol2/5fl5fl5fl-5fl-.out
 50 53 0 0 0
SMALL
GASTEIGER

@<TRIPOS>ATOM
      1 C          -1.9176   -2.1640    1.4069 C.ar    1  LIG1        0.0215
      2 C          -1.0849   -2.2802    0.3475 C.ar    1  LIG1        0.1663
      3 C          -0.4923   -1.0258   -0.0466 C.ar    1  LIG1        0.1766
      4 C          -0.9094    0.0218    0.7167 C.ar    1  LIG1        0.0749
      5 S          -2.0013   -0.5260    1.9540 S.2     1  LIG1       -0.0885
      6 H          -2.4913   -2.9441    1.8769 H       1  LIG1        0.0731
      7 O          -0.8151   -3.4252   -0.3357 O.3     1  LIG1       -0.5029
      8 H          -0.5235   -3.1686   -1.2214 H       1  LIG1        0.2923
      9 O           0.3376   -0.9789   -1.1268 O.3     1  LIG1       -0.4903
     10 C           1.6602   -1.4625   -0.8376 C.3     1  LIG1        0.0790
     11 H           2.2165   -1.3784   -1.7681 H       1  LIG1        0.0660
     12 H           2.1104   -0.8419   -0.0670 H       1  LIG1        0.0660
     13 H           1.6127   -2.5054   -0.5171 H       1  LIG1        0.0660
     14 C          -0.5988    1.4421    0.5669 C.ar    1  LIG1        0.0753
     15 C           0.5917    2.0255    0.2781 C.ar    1  LIG1        0.1748
     16 C           0.5115    3.4608    0.1592 C.ar    1  LIG1        0.1773
     17 C          -0.7413    3.9479    0.3763 C.ar    1  LIG1        0.0755
     18 S          -1.8521    2.6465    0.7101 S.2     1  LIG1       -0.0794
     19 O           1.7755    1.3975    0.1068 O.3     1  LIG1       -0.5025
     20 H           2.4334    2.0781   -0.0967 H       1  LIG1        0.2923
     21 O           1.6759    4.0783   -0.1527 O.3     1  LIG1       -0.4903
     22 C           1.6279    5.3061   -0.8791 C.3     1  LIG1        0.0790
     23 H           2.5998    5.4034   -1.3564 H       1  LIG1        0.0660
     24 H           0.8367    5.2622   -1.6298 H       1  LIG1        0.0660
     25 H           1.4598    6.1343   -0.1933 H       1  LIG1        0.0660
     26 C          -1.2060    5.3341    0.4224 C.ar    1  LIG1        0.0753
     27 C          -0.6772    6.3619    1.1369 C.ar    1  LIG1        0.1748
     28 C          -1.4065    7.5944    0.9935 C.ar    1  LIG1        0.1773
     29 C          -2.5001    7.4729    0.1917 C.ar    1  LIG1        0.0755
     30 S          -2.6231    5.8593   -0.4406 S.2     1  LIG1       -0.0794
     31 O           0.4296    6.2787    1.9188 O.3     1  LIG1       -0.5025
     32 H           0.3655    6.9674    2.5959 H       1  LIG1        0.2923
     33 O          -1.0128    8.7000    1.6853 O.3     1  LIG1       -0.4903
     34 C           0.1054    9.3736    1.0843 C.3     1  LIG1        0.0790
     35 H           0.3260   10.2188    1.7317 H       1  LIG1        0.0660
     36 H           0.9652    8.7005    1.0394 H       1  LIG1        0.0660
     37 H          -0.1715    9.7142    0.0894 H       1  LIG1        0.0660
     38 C          -3.5056    8.4867   -0.1258 C.ar    1  LIG1        0.0747
     39 C          -3.3094    9.7449   -0.5932 C.ar    1  LIG1        0.1742
     40 C          -4.5412   10.4672   -0.7915 C.ar    1  LIG1        0.1689
     41 C          -5.6428    9.7433   -0.4778 C.ar    1  LIG1        0.0218
     42 S          -5.2067    8.1649    0.0845 S.2     1  LIG1       -0.0885
     43 H          -6.6785   10.0320   -0.5381 H       1  LIG1        0.0731
     44 O          -2.1184   10.3134   -0.8910 O.3     1  LIG1       -0.5025
     45 H          -2.2911   11.2025   -1.2310 H       1  LIG1        0.2923
     46 O          -4.4205   11.7319   -1.2654 O.3     1  LIG1       -0.4909
     47 C          -5.6342   12.4400   -1.4634 C.3     1  LIG1        0.0790
     48 H          -5.3603   13.4214   -1.8391 H       1  LIG1        0.0660
     49 H          -6.2550   11.9165   -2.1943 H       1  LIG1        0.0660
     50 H          -6.1684   12.5345   -0.5155 H       1  LIG1        0.0660
@<TRIPOS>BOND
     1    49    47    1
     2    48    47    1
     3    11    10    1
     4    24    22    1
     5    47    46    1
     6    47    50    1
     7    23    22    1
     8    46    40    1
     9    45    44    1
    10     8     7    1
    11     9    10    1
    12     9     3    1
    13    44    39    1
    14    22    25    1
    15    22    21    1
    16    10    13    1
    17    10    12    1
    18    40    39   ar
    19    40    41   ar
    20    39    38   ar
    21    43    41    1
    22    41    42   ar
    23    30    29   ar
    24    30    26   ar
    25     7     2    1
    26    21    16    1
    27    38    42   ar
    28    38    29    1
    29    20    19    1
    30     3     2   ar
    31     3     4   ar
    32    37    34    1
    33    19    15    1
    34    16    15   ar
    35    16    17   ar
    36    29    28   ar
    37    15    14   ar
    38     2     1   ar
    39    17    26    1
    40    17    18   ar
    41    26    27   ar
    42    14    18   ar
    43    14     4    1
    44     4     5   ar
    45    28    27   ar
    46    28    33    1
    47    36    34    1
    48    34    33    1
    49    34    35    1
    50    27    31    1
    51     1     6    1
    52     1     5   ar
    53    31    32    1
