@<TRIPOS>MOLECULE
mol_data/opt/m06hf/geoms/mol2/5fl5fl5fl5fl.out
 50 53 0 0 0
SMALL
GASTEIGER

@<TRIPOS>ATOM
      1 C          -2.0075   -1.9972    1.5260 C.ar    1  LIG1        0.0215
      2 C          -1.1455   -2.1623    0.4969 C.ar    1  LIG1        0.1663
      3 C          -0.5346   -0.9278    0.0694 C.ar    1  LIG1        0.1766
      4 C          -0.9711    0.1520    0.7747 C.ar    1  LIG1        0.0749
      5 S          -2.0995   -0.3380    2.0028 S.2     1  LIG1       -0.0885
      6 H          -2.5997   -2.7543    2.0108 H       1  LIG1        0.0731
      7 O          -0.8636   -3.3374   -0.1272 O.3     1  LIG1       -0.5029
      8 H          -0.5672   -3.1260   -1.0231 H       1  LIG1        0.2923
      9 O           0.3285   -0.9193   -0.9849 O.3     1  LIG1       -0.4903
     10 C           1.6310   -1.4269   -0.6488 C.3     1  LIG1        0.0790
     11 H           2.2164   -1.3699   -1.5632 H       1  LIG1        0.0660
     12 H           2.0721   -0.8044    0.1257 H       1  LIG1        0.0660
     13 H           1.5517   -2.4626   -0.3126 H       1  LIG1        0.0660
     14 C          -0.6382    1.5589    0.5683 C.ar    1  LIG1        0.0753
     15 C           0.5739    2.1166    0.3040 C.ar    1  LIG1        0.1748
     16 C           0.4993    3.5353    0.1230 C.ar    1  LIG1        0.1773
     17 C          -0.7506    4.0568    0.2660 C.ar    1  LIG1        0.0755
     18 S          -1.8787    2.7874    0.6140 S.2     1  LIG1       -0.0794
     19 O           1.7558    1.4634    0.2103 O.3     1  LIG1       -0.5025
     20 H           2.4586    2.1279    0.2012 H       1  LIG1        0.2923
     21 O           1.6458    4.2441   -0.1609 O.3     1  LIG1       -0.4903
     22 C           1.7571    4.6173   -1.5502 C.3     1  LIG1        0.0790
     23 H           2.6918    5.1638   -1.6409 H       1  LIG1        0.0660
     24 H           1.7722    3.7135   -2.1592 H       1  LIG1        0.0660
     25 H           0.9133    5.2503   -1.8241 H       1  LIG1        0.0660
     26 C          -1.1358    5.4592    0.1593 C.ar    1  LIG1        0.0753
     27 C          -0.3673    6.5528    0.4515 C.ar    1  LIG1        0.1748
     28 C          -1.0633    7.7993    0.2179 C.ar    1  LIG1        0.1773
     29 C          -2.3369    7.6148   -0.2296 C.ar    1  LIG1        0.0755
     30 S          -2.7178    5.9293   -0.4043 S.2     1  LIG1       -0.0794
     31 O           0.9021    6.5777    0.9040 O.3     1  LIG1       -0.5025
     32 H           1.3438    5.7243    0.7334 H       1  LIG1        0.2923
     33 O          -0.4755    9.0069    0.3682 O.3     1  LIG1       -0.4903
     34 C          -0.1382    9.3316    1.7232 C.3     1  LIG1        0.0790
     35 H           0.2877   10.3313    1.6878 H       1  LIG1        0.0660
     36 H          -1.0434    9.3310    2.3291 H       1  LIG1        0.0660
     37 H           0.5937    8.6199    2.1037 H       1  LIG1        0.0660
     38 C          -3.3002    8.6474   -0.5978 C.ar    1  LIG1        0.0747
     39 C          -3.5489    9.8228    0.0359 C.ar    1  LIG1        0.1742
     40 C          -4.5706   10.6018   -0.6211 C.ar    1  LIG1        0.1689
     41 C          -5.0786   10.0029   -1.7247 C.ar    1  LIG1        0.0218
     42 S          -4.3125    8.4763   -2.0073 S.2     1  LIG1       -0.0885
     43 H          -5.8483   10.3567   -2.3895 H       1  LIG1        0.0731
     44 O          -2.9668   10.2597    1.1733 O.3     1  LIG1       -0.5025
     45 H          -3.3561   11.1166    1.3953 H       1  LIG1        0.2923
     46 O          -4.8805   11.7900   -0.0451 O.3     1  LIG1       -0.4909
     47 C          -5.8929   12.5449   -0.6897 C.3     1  LIG1        0.0790
     48 H          -6.0135   13.4559   -0.1104 H       1  LIG1        0.0660
     49 H          -5.5850   12.7857   -1.7098 H       1  LIG1        0.0660
     50 H          -6.8279   11.9799   -0.7028 H       1  LIG1        0.0660
@<TRIPOS>BOND
     1    43    41    1
     2    24    22    1
     3    42    41   ar
     4    42    38   ar
     5    25    22    1
     6    41    40   ar
     7    49    47    1
     8    23    22    1
     9    11    10    1
    10    22    21    1
    11     8     7    1
    12     9    10    1
    13     9     3    1
    14    50    47    1
    15    47    48    1
    16    47    46    1
    17    10    13    1
    18    10    12    1
    19    40    46    1
    20    40    39   ar
    21    38    29    1
    22    38    39   ar
    23    30    29   ar
    24    30    26   ar
    25    29    28   ar
    26    21    16    1
    27     7     2    1
    28    39    44    1
    29     3     2   ar
    30     3     4   ar
    31    16    17   ar
    32    16    15   ar
    33    26    17    1
    34    26    27   ar
    35    20    19    1
    36    19    15    1
    37    28    33    1
    38    28    27   ar
    39    17    18   ar
    40    15    14   ar
    41    33    34    1
    42    27    31    1
    43     2     1   ar
    44    14    18   ar
    45    14     4    1
    46    32    31    1
    47     4     5   ar
    48    44    45    1
    49     1     5   ar
    50     1     6    1
    51    35    34    1
    52    34    37    1
    53    34    36    1
