@<TRIPOS>MOLECULE
mol_data/opt/m06hf/geoms/mol2/5fl5fl5fl.out
 38 40 0 0 0
SMALL
GASTEIGER

@<TRIPOS>ATOM
      1 C          -2.4123   -2.0029    0.3308 C.ar    1  LIG1        0.0215
      2 C          -1.2273   -2.1086   -0.3137 C.ar    1  LIG1        0.1663
      3 C          -0.4880   -0.8710   -0.3408 C.ar    1  LIG1        0.1766
      4 C          -1.1470    0.1543    0.2669 C.ar    1  LIG1        0.0749
      5 S          -2.6604   -0.3967    0.9198 S.2     1  LIG1       -0.0885
      6 H          -3.1502   -2.7737    0.4733 H       1  LIG1        0.0731
      7 O          -0.7421   -3.2298   -0.9135 O.3     1  LIG1       -0.5029
      8 H          -0.1448   -2.9450   -1.6187 H       1  LIG1        0.2923
      9 O           0.7097   -0.7993   -0.9852 O.3     1  LIG1       -0.4903
     10 C           1.7837   -1.4078   -0.2490 C.3     1  LIG1        0.0790
     11 H           2.6760   -1.2651   -0.8534 H       1  LIG1        0.0660
     12 H           1.8909   -0.9077    0.7104 H       1  LIG1        0.0660
     13 H           1.5847   -2.4721   -0.1085 H       1  LIG1        0.0660
     14 C          -0.7438    1.5554    0.3563 C.ar    1  LIG1        0.0753
     15 C           0.4822    2.0722    0.6300 C.ar    1  LIG1        0.1748
     16 C           0.5087    3.5113    0.6303 C.ar    1  LIG1        0.1773
     17 C          -0.7074    4.0697    0.3812 C.ar    1  LIG1        0.0755
     18 S          -1.8926    2.8367    0.0830 S.2     1  LIG1       -0.0794
     19 O           1.6011    1.3680    0.9381 O.3     1  LIG1       -0.5025
     20 H           2.1796    1.9625    1.4382 H       1  LIG1        0.2923
     21 O           1.6674    4.1589    0.9378 O.3     1  LIG1       -0.4903
     22 C           2.5906    4.2163   -0.1649 C.3     1  LIG1        0.0790
     23 H           3.4698    4.7333    0.2117 H       1  LIG1        0.0660
     24 H           2.8520    3.2045   -0.4817 H       1  LIG1        0.0660
     25 H           2.1391    4.7719   -0.9831 H       1  LIG1        0.0660
     26 C          -1.0799    5.4838    0.3803 C.ar    1  LIG1        0.0747
     27 C          -0.4628    6.5233   -0.2368 C.ar    1  LIG1        0.1742
     28 C          -1.1338    7.7811   -0.0205 C.ar    1  LIG1        0.1689
     29 C          -2.2450    7.6723    0.7471 C.ar    1  LIG1        0.0218
     30 S          -2.4943    6.0329    1.2450 S.2     1  LIG1       -0.0885
     31 H          -2.9282    8.4454    1.0556 H       1  LIG1        0.0731
     32 O           0.6449    6.4568   -1.0103 O.3     1  LIG1       -0.5025
     33 H           0.8233    7.3453   -1.3485 H       1  LIG1        0.2923
     34 O          -0.5771    8.8636   -0.6190 O.3     1  LIG1       -0.4909
     35 C          -1.2640   10.0925   -0.4447 C.3     1  LIG1        0.0790
     36 H          -0.7017   10.8399   -0.9967 H       1  LIG1        0.0660
     37 H          -2.2778   10.0113   -0.8431 H       1  LIG1        0.0660
     38 H          -1.2974   10.3533    0.6155 H       1  LIG1        0.0660
@<TRIPOS>BOND
     1     8     7    1
     2    33    32    1
     3    32    27    1
     4    36    35    1
     5     9     3    1
     6     9    10    1
     7    25    22    1
     8     7     2    1
     9    11    10    1
    10    37    35    1
    11    34    35    1
    12    34    28    1
    13    24    22    1
    14    35    38    1
    15     3     2   ar
    16     3     4   ar
    17     2     1   ar
    18    10    13    1
    19    10    12    1
    20    27    28   ar
    21    27    26   ar
    22    22    23    1
    23    22    21    1
    24    28    29   ar
    25    18    14   ar
    26    18    17   ar
    27     4    14    1
    28     4     5   ar
    29     1     6    1
    30     1     5   ar
    31    14    15   ar
    32    26    17    1
    33    26    30   ar
    34    17    16   ar
    35    15    16   ar
    36    15    19    1
    37    16    21    1
    38    29    31    1
    39    29    30   ar
    40    19    20    1
