@<TRIPOS>MOLECULE
mol_data/opt/m06hf/geoms/mol2/5fl5fl5fl5fl-.out
 50 53 0 0 0
SMALL
GASTEIGER

@<TRIPOS>ATOM
      1 C          -2.4537   -2.0114    0.3777 C.ar    1  LIG1        0.0215
      2 C          -1.2126   -2.1720   -0.1360 C.ar    1  LIG1        0.1663
      3 C          -0.4830   -0.9330   -0.2472 C.ar    1  LIG1        0.1766
      4 C          -1.2011    0.1465    0.1693 C.ar    1  LIG1        0.0749
      5 S          -2.7662   -0.3498    0.7401 S.2     1  LIG1       -0.0885
      6 H          -3.1968   -2.7719    0.5452 H       1  LIG1        0.0731
      7 O          -0.6591   -3.3456   -0.5445 O.3     1  LIG1       -0.5029
      8 H           0.0232   -3.1291   -1.1951 H       1  LIG1        0.2923
      9 O           0.7697   -0.9284   -0.7841 O.3     1  LIG1       -0.4903
     10 C           1.7751   -1.3888    0.1351 C.3     1  LIG1        0.0790
     11 H           2.7169   -1.3422   -0.4062 H       1  LIG1        0.0660
     12 H           1.7991   -0.7311    1.0002 H       1  LIG1        0.0660
     13 H           1.5614   -2.4163    0.4365 H       1  LIG1        0.0660
     14 C          -0.8184    1.5563    0.1493 C.ar    1  LIG1        0.0753
     15 C           0.3426    2.1314    0.5581 C.ar    1  LIG1        0.1748
     16 C           0.3566    3.5631    0.4122 C.ar    1  LIG1        0.1773
     17 C          -0.8097    4.0626   -0.0819 C.ar    1  LIG1        0.0755
     18 S          -1.9189    2.7745   -0.4416 S.2     1  LIG1       -0.0794
     19 O           1.4003    1.4926    1.1208 O.3     1  LIG1       -0.5025
     20 H           1.8845    2.1500    1.6413 H       1  LIG1        0.2923
     21 O           1.4427    4.2687    0.8362 O.3     1  LIG1       -0.4903
     22 C           2.5384    4.2237   -0.0943 C.3     1  LIG1        0.0790
     23 H           3.3336    4.8140    0.3543 H       1  LIG1        0.0660
     24 H           2.8636    3.1907   -0.2357 H       1  LIG1        0.0660
     25 H           2.2262    4.6609   -1.0389 H       1  LIG1        0.0660
     26 C          -1.2002    5.4588   -0.2527 C.ar    1  LIG1        0.0753
     27 C          -0.4588    6.5114   -0.6891 C.ar    1  LIG1        0.1748
     28 C          -1.1891    7.7513   -0.7169 C.ar    1  LIG1        0.1773
     29 C          -2.4857    7.6194   -0.3256 C.ar    1  LIG1        0.0755
     30 S          -2.8175    5.9807    0.1403 S.2     1  LIG1       -0.0794
     31 O           0.8233    6.4671   -1.1292 O.3     1  LIG1       -0.5025
     32 H           0.9576    7.2489   -1.6847 H       1  LIG1        0.2923
     33 O          -0.5726    8.8758   -1.1772 O.3     1  LIG1       -0.4903
     34 C           0.2695    9.4972   -0.1897 C.3     1  LIG1        0.0790
     35 H           0.7241   10.3522   -0.6840 H       1  LIG1        0.0660
     36 H          -0.3397    9.8183    0.6513 H       1  LIG1        0.0660
     37 H           1.0388    8.7937    0.1365 H       1  LIG1        0.0660
     38 C          -3.5454    8.6273   -0.3148 C.ar    1  LIG1        0.0747
     39 C          -3.5247    9.8795    0.2078 C.ar    1  LIG1        0.1742
     40 C          -4.7741   10.5781    0.0344 C.ar    1  LIG1        0.1689
     41 C          -5.7153    9.8442   -0.6073 C.ar    1  LIG1        0.0218
     42 S          -5.0984    8.2856   -1.0360 S.2     1  LIG1       -0.0885
     43 H          -6.7265   10.1168   -0.8584 H       1  LIG1        0.0731
     44 O          -2.4945   10.4603    0.8640 O.3     1  LIG1       -0.5025
     45 H          -2.7913   11.3286    1.1704 H       1  LIG1        0.2923
     46 O          -4.8318   11.8333    0.5451 O.3     1  LIG1       -0.4909
     47 C          -6.0904   12.4817    0.4543 C.3     1  LIG1        0.0790
     48 H          -5.9723   13.4506    0.9299 H       1  LIG1        0.0660
     49 H          -6.3688   12.6096   -0.5939 H       1  LIG1        0.0660
     50 H          -6.8496   11.8939    0.9753 H       1  LIG1        0.0660
@<TRIPOS>BOND
     1    32    31    1
     2     8     7    1
     3    33    28    1
     4    33    34    1
     5    31    27    1
     6    25    22    1
     7    42    41   ar
     8    42    38   ar
     9    43    41    1
    10     9     3    1
    11     9    10    1
    12    28    27   ar
    13    28    29   ar
    14    27    26   ar
    15    35    34    1
    16    41    40   ar
    17    49    47    1
    18     7     2    1
    19    18    17   ar
    20    18    14   ar
    21    11    10    1
    22    29    38    1
    23    29    30   ar
    24    38    39   ar
    25    26    17    1
    26    26    30   ar
    27     3     2   ar
    28     3     4   ar
    29    24    22    1
    30    34    37    1
    31    34    36    1
    32     2     1   ar
    33    22    23    1
    34    22    21    1
    35    17    16   ar
    36    40    39   ar
    37    40    46    1
    38    10    13    1
    39    10    12    1
    40    14     4    1
    41    14    15   ar
    42     4     5   ar
    43    39    44    1
    44     1     6    1
    45     1     5   ar
    46    16    15   ar
    47    16    21    1
    48    47    46    1
    49    47    48    1
    50    47    50    1
    51    15    19    1
    52    44    45    1
    53    19    20    1
