@<TRIPOS>MOLECULE
mol_data/opt/m06hf/geoms/mol2/5fl5fl-5fl-5fl-.out
 50 53 0 0 0
SMALL
GASTEIGER

@<TRIPOS>ATOM
      1 C           0.1353   -2.4378    1.1310 C.ar    1  LIG1        0.0215
      2 C          -0.9738   -2.1295    0.4194 C.ar    1  LIG1        0.1663
      3 C          -1.0894   -0.7193    0.1507 C.ar    1  LIG1        0.1766
      4 C          -0.0727    0.0220    0.6662 C.ar    1  LIG1        0.0749
      5 S           1.0435   -1.0107    1.5184 S.2     1  LIG1       -0.0885
      6 H           0.4615   -3.4104    1.4557 H       1  LIG1        0.0731
      7 O          -1.9064   -2.9971   -0.0361 O.3     1  LIG1       -0.5029
      8 H          -2.6337   -2.4708   -0.3981 H       1  LIG1        0.2923
      9 O          -2.1583   -0.2635   -0.5663 O.3     1  LIG1       -0.4903
     10 C          -1.8301    0.0947   -1.9167 C.3     1  LIG1        0.0790
     11 H          -2.7549    0.4399   -2.3710 H       1  LIG1        0.0660
     12 H          -1.0872    0.8921   -1.9191 H       1  LIG1        0.0660
     13 H          -1.4468   -0.7817   -2.4439 H       1  LIG1        0.0660
     14 C           0.1077    1.4680    0.5778 C.ar    1  LIG1        0.0753
     15 C           1.2775    2.1322    0.3503 C.ar    1  LIG1        0.1748
     16 C           1.1103    3.5642    0.2908 C.ar    1  LIG1        0.1773
     17 C          -0.1866    3.9396    0.4811 C.ar    1  LIG1        0.0755
     18 S          -1.2279    2.5724    0.7302 S.2     1  LIG1       -0.0794
     19 O           2.5031    1.5887    0.1545 O.3     1  LIG1       -0.5025
     20 H           2.4358    0.6278    0.0765 H       1  LIG1        0.2923
     21 O           2.1143    4.4191   -0.0049 O.3     1  LIG1       -0.4903
     22 C           3.1520    4.4767    0.9803 C.3     1  LIG1        0.0790
     23 H           3.8304    5.2575    0.6457 H       1  LIG1        0.0660
     24 H           2.7205    4.7448    1.9439 H       1  LIG1        0.0660
     25 H           3.6703    3.5191    1.0309 H       1  LIG1        0.0660
     26 C          -0.7112    5.3004    0.4581 C.ar    1  LIG1        0.0753
     27 C          -0.1628    6.4075    1.0214 C.ar    1  LIG1        0.1748
     28 C          -0.9715    7.5897    0.8506 C.ar    1  LIG1        0.1773
     29 C          -2.1201    7.3589    0.1562 C.ar    1  LIG1        0.0755
     30 S          -2.2234    5.6836   -0.3150 S.2     1  LIG1       -0.0794
     31 O           0.9815    6.4599    1.7345 O.3     1  LIG1       -0.5025
     32 H           1.0753    7.3700    2.0523 H       1  LIG1        0.2923
     33 O          -0.4887    8.7134    1.4320 O.3     1  LIG1       -0.4903
     34 C          -1.4186    9.6703    1.9411 C.3     1  LIG1        0.0790
     35 H          -2.2760    9.1552    2.3785 H       1  LIG1        0.0660
     36 H          -0.8802   10.2278    2.7036 H       1  LIG1        0.0660
     37 H          -1.7369   10.3365    1.1418 H       1  LIG1        0.0660
     38 C          -3.1496    8.3021   -0.2781 C.ar    1  LIG1        0.0747
     39 C          -2.9658    9.4867   -0.9143 C.ar    1  LIG1        0.1742
     40 C          -4.2054   10.1479   -1.2390 C.ar    1  LIG1        0.1689
     41 C          -5.3000    9.4440   -0.8607 C.ar    1  LIG1        0.0218
     42 S          -4.8489    7.9699   -0.0698 S.2     1  LIG1       -0.0885
     43 H          -6.3394    9.6931   -0.9927 H       1  LIG1        0.0731
     44 O          -1.7669   10.0388   -1.2088 O.3     1  LIG1       -0.5025
     45 H          -1.9211   10.8311   -1.7415 H       1  LIG1        0.2923
     46 O          -4.1015   11.3382   -1.8795 O.3     1  LIG1       -0.4909
     47 C          -5.3247   11.9362   -2.2770 C.3     1  LIG1        0.0790
     48 H          -5.0645   12.8651   -2.7759 H       1  LIG1        0.0660
     49 H          -5.8573   11.2741   -2.9632 H       1  LIG1        0.0660
     50 H          -5.9418   12.1424   -1.3994 H       1  LIG1        0.0660
@<TRIPOS>BOND
     1    49    47    1
     2    48    47    1
     3    13    10    1
     4    11    10    1
     5    47    46    1
     6    47    50    1
     7    12    10    1
     8    10     9    1
     9    46    40    1
    10    45    44    1
    11    40    39   ar
    12    40    41   ar
    13    44    39    1
    14    43    41    1
    15    39    38   ar
    16    41    42   ar
    17     9     3    1
    18     8     7    1
    19    30    29   ar
    20    30    26   ar
    21    38    42   ar
    22    38    29    1
    23     7     2    1
    24    21    16    1
    25    21    22    1
    26    20    19    1
    27     3     2   ar
    28     3     4   ar
    29    19    15    1
    30    29    28   ar
    31    16    15   ar
    32    16    17   ar
    33    15    14   ar
    34     2     1   ar
    35    26    17    1
    36    26    27   ar
    37    17    18   ar
    38    14     4    1
    39    14    18   ar
    40    23    22    1
    41     4     5   ar
    42    28    27   ar
    43    28    33    1
    44    22    25    1
    45    22    24    1
    46    27    31    1
    47     1     6    1
    48     1     5   ar
    49    37    34    1
    50    33    34    1
    51    31    32    1
    52    34    35    1
    53    34    36    1
