@<TRIPOS>MOLECULE
mol_data/opt/m06hf/geoms/mol2/5fl5fl-5fl-.out
 38 40 0 0 0
SMALL
GASTEIGER

@<TRIPOS>ATOM
      1 C          -0.4063   -2.3559    1.6015 C.ar    1  LIG1        0.0215
      2 C          -0.9235   -2.2165    0.3589 C.ar    1  LIG1        0.1663
      3 C          -0.8479   -0.8632   -0.1280 C.ar    1  LIG1        0.1766
      4 C          -0.2812    0.0050    0.7517 C.ar    1  LIG1        0.0749
      5 S           0.1517   -0.8320    2.2172 S.2     1  LIG1       -0.0885
      6 H          -0.3335   -3.2539    2.1895 H       1  LIG1        0.0731
      7 O          -1.4559   -3.1965   -0.4067 O.3     1  LIG1       -0.5029
      8 H          -1.8611   -2.7717   -1.1761 H       1  LIG1        0.2923
      9 O          -1.3274   -0.5732   -1.3736 O.3     1  LIG1       -0.4903
     10 C          -0.2928   -0.3989   -2.3533 C.3     1  LIG1        0.0790
     11 H          -0.7966   -0.1658   -3.2873 H       1  LIG1        0.0660
     12 H           0.3594    0.4244   -2.0610 H       1  LIG1        0.0660
     13 H           0.2812   -1.3229   -2.4465 H       1  LIG1        0.0660
     14 C          -0.0532    1.4361    0.5723 C.ar    1  LIG1        0.0753
     15 C           1.0279    2.1482    1.0028 C.ar    1  LIG1        0.1748
     16 C           0.9582    3.5460    0.6509 C.ar    1  LIG1        0.1773
     17 C          -0.1801    3.8470   -0.0346 C.ar    1  LIG1        0.0755
     18 S          -1.1834    2.4510   -0.2755 S.2     1  LIG1       -0.0794
     19 O           2.1087    1.6749    1.6701 O.3     1  LIG1       -0.5025
     20 H           2.1130    0.7081    1.6648 H       1  LIG1        0.2923
     21 O           1.9474    4.4317    0.9035 O.3     1  LIG1       -0.4903
     22 C           2.1957    4.6599    2.2957 C.3     1  LIG1        0.0790
     23 H           2.9456    5.4460    2.3342 H       1  LIG1        0.0660
     24 H           1.2768    4.9956    2.7747 H       1  LIG1        0.0660
     25 H           2.5742    3.7504    2.7609 H       1  LIG1        0.0660
     26 C          -0.5505    5.1589   -0.5556 C.ar    1  LIG1        0.0747
     27 C          -0.4447    6.3536    0.0793 C.ar    1  LIG1        0.1742
     28 C          -0.8874    7.4581   -0.7361 C.ar    1  LIG1        0.1689
     29 C          -1.3214    7.0806   -1.9633 C.ar    1  LIG1        0.0218
     30 S          -1.1879    5.3652   -2.1669 S.2     1  LIG1       -0.0885
     31 H          -1.7086    7.6946   -2.7584 H       1  LIG1        0.0731
     32 O          -0.0086    6.5487    1.3431 O.3     1  LIG1       -0.5025
     33 H          -0.0650    7.4953    1.5339 H       1  LIG1        0.2923
     34 O          -0.8219    8.6872   -0.1669 O.3     1  LIG1       -0.4909
     35 C          -1.2221    9.7732   -0.9862 C.3     1  LIG1        0.0790
     36 H          -1.0982   10.6712   -0.3882 H       1  LIG1        0.0660
     37 H          -0.5900    9.8214   -1.8759 H       1  LIG1        0.0660
     38 H          -2.2690    9.6560   -1.2757 H       1  LIG1        0.0660
@<TRIPOS>BOND
     1    11    10    1
     2    31    29    1
     3    13    10    1
     4    10    12    1
     5    10     9    1
     6    30    29   ar
     7    30    26   ar
     8    29    28   ar
     9    37    35    1
    10     9     3    1
    11    38    35    1
    12     8     7    1
    13    35    36    1
    14    35    34    1
    15    28    34    1
    16    28    27   ar
    17    26    17    1
    18    26    27   ar
    19     7     2    1
    20    18    17   ar
    21    18    14   ar
    22     3     2   ar
    23     3     4   ar
    24    17    16   ar
    25    27    32    1
    26     2     1   ar
    27    14     4    1
    28    14    15   ar
    29    16    21    1
    30    16    15   ar
    31     4     5   ar
    32    21    22    1
    33    15    19    1
    34    32    33    1
    35     1     6    1
    36     1     5   ar
    37    20    19    1
    38    22    23    1
    39    22    25    1
    40    22    24    1
