@<TRIPOS>MOLECULE
mol_data/opt/m06hf/geoms/mol2/5ga.out
 10 10 0 0 0
SMALL
GASTEIGER

@<TRIPOS>ATOM
      1 C          -1.9873   -1.6746   -0.0327 C.ar    1  LIG1       -0.0112
      2 C          -0.6460   -1.5678    0.1684 C.ar    1  LIG1        0.0117
      3 C          -0.1952   -0.2025    0.1774 C.ar    1  LIG1       -0.0415
      4 C          -1.2115    0.6731   -0.0314 C.ar    1  LIG1       -0.0233
      5 S          -2.7232   -0.1329   -0.2222 S.2     1  LIG1       -0.1040
      6 H          -2.5690   -2.5810   -0.0800 H       1  LIG1        0.0704
      7 H          -1.1635    1.7491   -0.0753 H       1  LIG1        0.0694
      8 S           0.4010   -2.9764    0.4693 S.3     1  LIG1       -0.1421
      9 H           1.0295   -2.9512   -0.7120 H       1  LIG1        0.1071
     10 H           0.8341    0.0809    0.3379 H       1  LIG1        0.0634
@<TRIPOS>BOND
     1     9     8    1
     2     5     1   ar
     3     5     4   ar
     4     6     1    1
     5     7     4    1
     6     1     2   ar
     7     4     3   ar
     8     2     3   ar
     9     2     8    1
    10     3    10    1
