@<TRIPOS>MOLECULE
mol_data/opt/m06hf/geoms/mol2/5ga5ga5ga.out
 26 28 0 0 0
SMALL
GASTEIGER

@<TRIPOS>ATOM
      1 C          -1.9143   -1.8537    0.0101 C.ar    1  LIG1       -0.0105
      2 C          -0.6749   -1.7413   -0.5409 C.ar    1  LIG1        0.0124
      3 C          -0.2035   -0.3869   -0.5666 C.ar    1  LIG1       -0.0332
      4 C          -1.0931    0.4824   -0.0064 C.ar    1  LIG1        0.0280
      5 S          -2.5203   -0.3350    0.5365 S.2     1  LIG1       -0.0950
      6 H          -2.4893   -2.7565    0.1401 H       1  LIG1        0.0704
      7 S           0.2132   -3.1280   -1.2189 S.3     1  LIG1       -0.1421
      8 H           1.1539   -3.1722   -0.2672 H       1  LIG1        0.1071
      9 H           0.7346   -0.0857   -1.0108 H       1  LIG1        0.0640
     10 C          -0.9290    1.9288    0.1670 C.ar    1  LIG1        0.0397
     11 C           0.1671    2.5851    0.6549 C.ar    1  LIG1        0.0206
     12 C          -0.0150    4.0067    0.6925 C.ar    1  LIG1       -0.0326
     13 C          -1.2437    4.3916    0.2449 C.ar    1  LIG1        0.0286
     14 S          -2.1873    3.0368   -0.2695 S.2     1  LIG1       -0.0861
     15 S           1.6339    1.7518    1.2053 S.3     1  LIG1       -0.1415
     16 H           2.0527    2.7608    1.9754 H       1  LIG1        0.1071
     17 H           0.7229    4.7021    1.0681 H       1  LIG1        0.0640
     18 C          -1.7572    5.7616    0.1454 C.ar    1  LIG1        0.0391
     19 C          -1.1362    6.8485   -0.4053 C.ar    1  LIG1        0.0200
     20 C          -1.9337    8.0407   -0.3178 C.ar    1  LIG1       -0.0409
     21 C          -3.1356    7.8156    0.2725 C.ar    1  LIG1       -0.0227
     22 S          -3.3171    6.1806    0.7695 S.2     1  LIG1       -0.0950
     23 H          -3.9228    8.5288    0.4566 H       1  LIG1        0.0694
     24 S           0.4812    6.7788   -1.1324 S.3     1  LIG1       -0.1415
     25 H           0.2440    7.7198   -2.0502 H       1  LIG1        0.1071
     26 H          -1.6101    9.0033   -0.6849 H       1  LIG1        0.0634
@<TRIPOS>BOND
     1    25    24    1
     2     7     2    1
     3     7     8    1
     4    24    19    1
     5     9     3    1
     6    26    20    1
     7     3     2   ar
     8     3     4   ar
     9     2     1   ar
    10    19    20   ar
    11    19    18   ar
    12    20    21   ar
    13    14    10   ar
    14    14    13   ar
    15     4    10    1
    16     4     5   ar
    17     1     6    1
    18     1     5   ar
    19    18    13    1
    20    18    22   ar
    21    10    11   ar
    22    13    12   ar
    23    21    23    1
    24    21    22   ar
    25    11    12   ar
    26    11    15    1
    27    12    17    1
    28    15    16    1
