@<TRIPOS>MOLECULE
mol_data/opt/m06hf/geoms/mol2/5ga5ga-5ga.out
 26 28 0 0 0
SMALL
GASTEIGER

@<TRIPOS>ATOM
      1 C          -1.9131   -1.8539   -0.0349 C.ar    1  LIG1       -0.0105
      2 C          -0.6832   -1.7417    0.5371 C.ar    1  LIG1        0.0124
      3 C          -0.2126   -0.3872    0.5719 C.ar    1  LIG1       -0.0332
      4 C          -1.0928    0.4824   -0.0024 C.ar    1  LIG1        0.0280
      5 S          -2.5105   -0.3348   -0.5701 S.2     1  LIG1       -0.0950
      6 H          -2.4857   -2.7566   -0.1753 H       1  LIG1        0.0704
      7 S           0.1939   -3.1288    1.2286 S.3     1  LIG1       -0.1421
      8 H           1.1500   -3.1723    0.2924 H       1  LIG1        0.1071
      9 H           0.7179   -0.0862    1.0320 H       1  LIG1        0.0640
     10 C          -0.9261    1.9290   -0.1719 C.ar    1  LIG1        0.0397
     11 C           0.1777    2.5859   -0.6414 C.ar    1  LIG1        0.0206
     12 C          -0.0039    4.0075   -0.6807 C.ar    1  LIG1       -0.0326
     13 C          -1.2398    4.3918   -0.2527 C.ar    1  LIG1        0.0286
     14 S          -2.1914    3.0364    0.2451 S.2     1  LIG1       -0.0861
     15 S           1.6532    1.7528   -1.1683 S.3     1  LIG1       -0.1415
     16 H           2.0846    2.7621   -1.9310 H       1  LIG1        0.1071
     17 H           0.7399    4.7032   -1.0436 H       1  LIG1        0.0640
     18 C          -1.7551    5.7617   -0.1604 C.ar    1  LIG1        0.0391
     19 C          -1.1431    6.8486    0.4003 C.ar    1  LIG1        0.0200
     20 C          -1.9395    8.0405    0.3009 C.ar    1  LIG1       -0.0409
     21 C          -3.1320    7.8153   -0.3081 C.ar    1  LIG1       -0.0227
     22 S          -3.3052    6.1804   -0.8085 S.2     1  LIG1       -0.0950
     23 H          -3.9165    8.5283   -0.5042 H       1  LIG1        0.0694
     24 S           0.4630    6.7794    1.1524 S.3     1  LIG1       -0.1415
     25 H           0.2104    7.7179    2.0685 H       1  LIG1        0.1071
     26 H          -1.6218    9.0030    0.6733 H       1  LIG1        0.0634
@<TRIPOS>BOND
     1    16    15    1
     2    15    11    1
     3    17    12    1
     4    22    21   ar
     5    22    18   ar
     6    12    11   ar
     7    12    13   ar
     8    11    10   ar
     9     5     1   ar
    10     5     4   ar
    11    23    21    1
    12    21    20   ar
    13    13    18    1
    14    13    14   ar
    15     6     1    1
    16    10     4    1
    17    10    14   ar
    18    18    19   ar
    19     1     2   ar
    20     4     3   ar
    21     8     7    1
    22    20    19   ar
    23    20    26    1
    24    19    24    1
    25     2     3   ar
    26     2     7    1
    27     3     9    1
    28    24    25    1
