@<TRIPOS>MOLECULE
mol_data/opt/m06hf/geoms/mol2/5ga5ga.out
 18 19 0 0 0
SMALL
GASTEIGER

@<TRIPOS>ATOM
      1 C          -1.8949   -1.7441    0.4787 C.ar    1  LIG1       -0.0105
      2 C          -0.7398   -1.7264   -0.2411 C.ar    1  LIG1        0.0124
      3 C          -0.2918   -0.3952   -0.5323 C.ar    1  LIG1       -0.0332
      4 C          -1.1104    0.5566    0.0000 C.ar    1  LIG1        0.0280
      5 S          -2.4458   -0.1596    0.8421 S.2     1  LIG1       -0.0950
      6 H          -2.4386   -2.6129    0.8131 H       1  LIG1        0.0704
      7 S           0.0579   -3.2066   -0.8277 S.3     1  LIG1       -0.1421
      8 H           1.0770   -3.1819    0.0411 H       1  LIG1        0.1071
      9 H           0.5791   -0.1744   -1.1332 H       1  LIG1        0.0640
     10 C          -0.9511    2.0122   -0.0743 C.ar    1  LIG1        0.0390
     11 C           0.1841    2.7440    0.1401 C.ar    1  LIG1        0.0200
     12 C          -0.0271    4.1550   -0.0350 C.ar    1  LIG1       -0.0409
     13 C          -1.3134    4.4495   -0.3519 C.ar    1  LIG1       -0.0227
     14 S          -2.2862    3.0376   -0.4849 S.2     1  LIG1       -0.0950
     15 H          -1.7435    5.4221   -0.5280 H       1  LIG1        0.0694
     16 S           1.7439    2.0121    0.5665 S.3     1  LIG1       -0.1415
     17 H           2.1493    3.0126    1.3563 H       1  LIG1        0.1071
     18 H           0.7541    4.8924    0.0771 H       1  LIG1        0.0634
@<TRIPOS>BOND
     1     9     3    1
     2     7     2    1
     3     7     8    1
     4     3     2   ar
     5     3     4   ar
     6    15    13    1
     7    14    13   ar
     8    14    10   ar
     9    13    12   ar
    10     2     1   ar
    11    10     4    1
    12    10    11   ar
    13    12    18    1
    14    12    11   ar
    15     4     5   ar
    16    11    16    1
    17     1     6    1
    18     1     5   ar
    19    16    17    1
