@<TRIPOS>MOLECULE
mol_data/opt/m06hf/geoms/mol2/5ga5ga5ga-5ga.out
 34 37 0 0 0
SMALL
GASTEIGER

@<TRIPOS>ATOM
      1 C          -1.3713   -1.7058    1.5049 C.ar    1  LIG1       -0.0105
      2 C          -0.8891   -1.8472    0.2397 C.ar    1  LIG1        0.0124
      3 C          -0.6440   -0.5875   -0.4004 C.ar    1  LIG1       -0.0332
      4 C          -0.9284    0.4713    0.4109 C.ar    1  LIG1        0.0280
      5 S          -1.5088   -0.0558    1.9561 S.2     1  LIG1       -0.0950
      6 H          -1.6449   -2.4935    2.1884 H       1  LIG1        0.0704
      7 S          -0.6820   -3.4296   -0.5503 S.3     1  LIG1       -0.1421
      8 H           0.6464   -3.5015   -0.4069 H       1  LIG1        0.1071
      9 H          -0.3039   -0.4911   -1.4219 H       1  LIG1        0.0640
     10 C          -0.7789    1.8966    0.0995 C.ar    1  LIG1        0.0397
     11 C           0.3008    2.5237   -0.4598 C.ar    1  LIG1        0.0206
     12 C           0.0855    3.9282   -0.6500 C.ar    1  LIG1       -0.0326
     13 C          -1.1336    4.3397   -0.1970 C.ar    1  LIG1        0.0286
     14 S          -2.0593    3.0162    0.4237 S.2     1  LIG1       -0.0861
     15 S           1.7896    1.6798   -0.9296 S.3     1  LIG1       -0.1415
     16 H           2.6146    2.6557   -0.5335 H       1  LIG1        0.1071
     17 H           0.8005    4.5860   -1.1247 H       1  LIG1        0.0640
     18 C          -1.6562    5.7077   -0.1959 C.ar    1  LIG1        0.0397
     19 C          -0.9803    6.8522    0.1279 C.ar    1  LIG1        0.0206
     20 C          -1.7925    8.0260   -0.0055 C.ar    1  LIG1       -0.0326
     21 C          -3.0701    7.7412   -0.3893 C.ar    1  LIG1        0.0286
     22 S          -3.2972    6.0446   -0.6355 S.2     1  LIG1       -0.0861
     23 S           0.7151    6.8700    0.6491 S.3     1  LIG1       -0.1415
     24 H           0.6281    8.0417    1.2842 H       1  LIG1        0.1071
     25 H          -1.4317    9.0327    0.1532 H       1  LIG1        0.0640
     26 C          -4.1616    8.7002   -0.5802 C.ar    1  LIG1        0.0391
     27 C          -4.4938    9.7458    0.2360 C.ar    1  LIG1        0.0200
     28 C          -5.6098   10.4998   -0.2645 C.ar    1  LIG1       -0.0409
     29 C          -6.0947    9.9931   -1.4272 C.ar    1  LIG1       -0.0227
     30 S          -5.2059    8.6225   -1.9593 S.2     1  LIG1       -0.0950
     31 H          -6.9270   10.3581   -2.0069 H       1  LIG1        0.0694
     32 S          -3.6360   10.0945    1.7493 S.3     1  LIG1       -0.1415
     33 H          -4.5741   10.9140    2.2332 H       1  LIG1        0.1071
     34 H          -6.0196   11.3670    0.2319 H       1  LIG1        0.0634
@<TRIPOS>BOND
     1    31    29    1
     2    30    29   ar
     3    30    26   ar
     4    29    28   ar
     5     9     3    1
     6    17    12    1
     7    15    16    1
     8    15    11    1
     9    12    11   ar
    10    12    13   ar
    11    22    21   ar
    12    22    18   ar
    13    26    21    1
    14    26    27   ar
    15     7     8    1
    16     7     2    1
    17    11    10   ar
    18     3     2   ar
    19     3     4   ar
    20    21    20   ar
    21    28    34    1
    22    28    27   ar
    23    13    18    1
    24    13    14   ar
    25    18    19   ar
    26    20    19   ar
    27    20    25    1
    28    10     4    1
    29    10    14   ar
    30    19    23    1
    31    27    32    1
    32     2     1   ar
    33     4     5   ar
    34    23    24    1
    35     1     5   ar
    36     1     6    1
    37    32    33    1
