@<TRIPOS>MOLECULE
mol_data/opt/m06hf/geoms/mol2/5ga5ga-5ga5ga-.out
 34 37 0 0 0
SMALL
GASTEIGER

@<TRIPOS>ATOM
      1 C          -1.4147   -1.8738    1.0633 C.ar    1  LIG1       -0.0105
      2 C          -0.8069   -1.8698   -0.1539 C.ar    1  LIG1        0.0124
      3 C          -0.5422   -0.5442   -0.6339 C.ar    1  LIG1       -0.0332
      4 C          -0.9356    0.4165    0.2508 C.ar    1  LIG1        0.0280
      5 S          -1.6531   -0.2832    1.6656 S.2     1  LIG1       -0.0950
      6 H          -1.7242   -2.7352    1.6329 H       1  LIG1        0.0704
      7 S          -0.4657   -3.3571   -1.0718 S.3     1  LIG1       -0.1421
      8 H           0.8624   -3.3255   -0.9052 H       1  LIG1        0.1071
      9 H          -0.1108   -0.3327   -1.6021 H       1  LIG1        0.0640
     10 C          -0.7992    1.8681    0.1058 C.ar    1  LIG1        0.0397
     11 C           0.2974    2.5662   -0.3211 C.ar    1  LIG1        0.0206
     12 C           0.0665    3.9807   -0.3688 C.ar    1  LIG1       -0.0326
     13 C          -1.1842    4.3233    0.0527 C.ar    1  LIG1        0.0286
     14 S          -2.1177    2.9298    0.4767 S.2     1  LIG1       -0.0861
     15 S           1.8182    1.7892   -0.8008 S.3     1  LIG1       -0.1415
     16 H           2.6005    2.8114   -0.4366 H       1  LIG1        0.1071
     17 H           0.7910    4.6994   -0.7256 H       1  LIG1        0.0640
     18 C          -1.7392    5.6747    0.1660 C.ar    1  LIG1        0.0397
     19 C          -1.1585    6.7666    0.7504 C.ar    1  LIG1        0.0206
     20 C          -1.9895    7.9333    0.6883 C.ar    1  LIG1       -0.0326
     21 C          -3.1814    7.6966    0.0713 C.ar    1  LIG1        0.0286
     22 S          -3.2959    6.0606   -0.4828 S.2     1  LIG1       -0.0861
     23 S           0.4451    6.7234    1.5090 S.3     1  LIG1       -0.1415
     24 H           0.2102    7.7463    2.3372 H       1  LIG1        0.1071
     25 H          -1.7151    8.8966    1.0914 H       1  LIG1        0.0640
     26 C          -4.2872    8.6399   -0.1492 C.ar    1  LIG1        0.0391
     27 C          -4.2398    9.9439   -0.5603 C.ar    1  LIG1        0.0200
     28 C          -5.5433   10.5388   -0.6611 C.ar    1  LIG1       -0.0409
     29 C          -6.5342    9.6778   -0.3149 C.ar    1  LIG1       -0.0227
     30 S          -5.9203    8.1348    0.1272 S.2     1  LIG1       -0.0950
     31 H          -7.5963    9.8610   -0.3045 H       1  LIG1        0.0694
     32 S          -2.7442   10.7812   -1.0383 S.3     1  LIG1       -0.1415
     33 H          -3.0060   11.9044   -0.3591 H       1  LIG1        0.1071
     34 H          -5.7061   11.5536   -0.9928 H       1  LIG1        0.0634
@<TRIPOS>BOND
     1     9     3    1
     2     7     8    1
     3     7     2    1
     4    32    27    1
     5    32    33    1
     6    34    28    1
     7    15    16    1
     8    15    11    1
     9    17    12    1
    10    28    27   ar
    11    28    29   ar
    12     3     2   ar
    13     3     4   ar
    14    27    26   ar
    15    22    21   ar
    16    22    18   ar
    17    12    11   ar
    18    12    13   ar
    19    11    10   ar
    20    29    31    1
    21    29    30   ar
    22     2     1   ar
    23    26    21    1
    24    26    30   ar
    25    13    18    1
    26    13    14   ar
    27    21    20   ar
    28    10     4    1
    29    10    14   ar
    30    18    19   ar
    31     4     5   ar
    32    20    19   ar
    33    20    25    1
    34    19    23    1
    35     1     6    1
    36     1     5   ar
    37    23    24    1
