@<TRIPOS>MOLECULE
mol_data/opt/m06hf/geoms/mol2/5ga5ga-5ga-5ga-.out
 34 37 0 0 0
SMALL
GASTEIGER

@<TRIPOS>ATOM
      1 C          -1.8000   -1.9778   -0.1721 C.ar    1  LIG1       -0.0105
      2 C          -0.5580   -1.8614    0.3726 C.ar    1  LIG1        0.0124
      3 C          -0.1196   -0.4983    0.4596 C.ar    1  LIG1       -0.0332
      4 C          -1.0380    0.3749   -0.0450 C.ar    1  LIG1        0.0280
      5 S          -2.4527   -0.4509   -0.6104 S.2     1  LIG1       -0.0950
      6 H          -2.3544   -2.8872   -0.3399 H       1  LIG1        0.0704
      7 S           0.3508   -3.2556    1.0025 S.3     1  LIG1       -0.1421
      8 H           1.3382   -3.2157    0.0998 H       1  LIG1        0.1071
      9 H           0.8166   -0.1955    0.9073 H       1  LIG1        0.0640
     10 C          -0.9106    1.8318   -0.1433 C.ar    1  LIG1        0.0397
     11 C           0.1635    2.5377   -0.6111 C.ar    1  LIG1        0.0206
     12 C          -0.0480    3.9549   -0.5678 C.ar    1  LIG1       -0.0326
     13 C          -1.2769    4.2878   -0.0771 C.ar    1  LIG1        0.0286
     14 S          -2.1851    2.8860    0.3715 S.2     1  LIG1       -0.0861
     15 S           1.6373    1.7615   -1.2213 S.3     1  LIG1       -0.1415
     16 H           2.0524    2.8280   -1.9113 H       1  LIG1        0.1071
     17 H           0.6678    4.6867   -0.9157 H       1  LIG1        0.0640
     18 C          -1.8066    5.6393    0.1208 C.ar    1  LIG1        0.0397
     19 C          -1.1547    6.7091    0.6693 C.ar    1  LIG1        0.0206
     20 C          -1.9754    7.8832    0.7230 C.ar    1  LIG1       -0.0326
     21 C          -3.2247    7.6771    0.2164 C.ar    1  LIG1        0.0286
     22 S          -3.4193    6.0586   -0.3595 S.2     1  LIG1       -0.0861
     23 S           0.5125    6.6228    1.2692 S.3     1  LIG1       -0.1415
     24 H           0.4649    7.7975    1.9035 H       1  LIG1        0.1071
     25 H          -1.6603    8.8228    1.1556 H       1  LIG1        0.0640
     26 C          -4.3010    8.6650    0.1096 C.ar    1  LIG1        0.0391
     27 C          -4.1962    9.9689   -0.2908 C.ar    1  LIG1        0.0200
     28 C          -5.4563   10.6583   -0.2541 C.ar    1  LIG1       -0.0409
     29 C          -6.4732    9.8541    0.1495 C.ar    1  LIG1       -0.0227
     30 S          -5.9346    8.2667    0.5263 S.2     1  LIG1       -0.0950
     31 H          -7.5146   10.1115    0.2565 H       1  LIG1        0.0694
     32 S          -2.6632   10.7083   -0.7901 S.3     1  LIG1       -0.1415
     33 H          -3.2212   11.6491   -1.5567 H       1  LIG1        0.1071
     34 H          -5.5773   11.6977   -0.5224 H       1  LIG1        0.0634
@<TRIPOS>BOND
     1    16    15    1
     2    33    32    1
     3    15    11    1
     4    17    12    1
     5    32    27    1
     6    11    12   ar
     7    11    10   ar
     8     5     1   ar
     9     5     4   ar
    10    12    13   ar
    11    34    28    1
    12    22    18   ar
    13    22    21   ar
    14     6     1    1
    15    27    28   ar
    16    27    26   ar
    17    28    29   ar
    18     1     2   ar
    19    10     4    1
    20    10    14   ar
    21    13    18    1
    22    13    14   ar
    23     4     3   ar
    24     8     7    1
    25    26    21    1
    26    26    30   ar
    27    18    19   ar
    28    29    31    1
    29    29    30   ar
    30    21    20   ar
    31     2     3   ar
    32     2     7    1
    33     3     9    1
    34    19    20   ar
    35    19    23    1
    36    20    25    1
    37    23    24    1
