@<TRIPOS>MOLECULE
mol_data/opt/m06hf/geoms/mol2/5ga5ga5ga-.out
 26 28 0 0 0
SMALL
GASTEIGER

@<TRIPOS>ATOM
      1 C          -1.7235   -1.7453    0.9612 C.ar    1  LIG1       -0.0105
      2 C          -0.8515   -1.8074   -0.0825 C.ar    1  LIG1        0.0124
      3 C          -0.4636   -0.5092   -0.5546 C.ar    1  LIG1       -0.0332
      4 C          -1.0378    0.4972    0.1643 C.ar    1  LIG1        0.0280
      5 S          -2.0699   -0.1258    1.4113 S.2     1  LIG1       -0.0950
      6 H          -2.1722   -2.5757    1.4824 H       1  LIG1        0.0704
      7 S          -0.3449   -3.3417   -0.8296 S.3     1  LIG1       -0.1421
      8 H           0.8819   -3.3718   -0.2949 H       1  LIG1        0.1071
      9 H           0.1806   -0.3508   -1.4080 H       1  LIG1        0.0640
     10 C          -0.8509    1.9395   -0.0151 C.ar    1  LIG1        0.0397
     11 C           0.3239    2.6111   -0.2150 C.ar    1  LIG1        0.0206
     12 C           0.1316    4.0236   -0.3707 C.ar    1  LIG1       -0.0326
     13 C          -1.1749    4.3936   -0.2494 C.ar    1  LIG1        0.0286
     14 S          -2.2008    3.0275    0.0141 S.2     1  LIG1       -0.0861
     15 S           1.9031    1.8063   -0.2943 S.3     1  LIG1       -0.1415
     16 H           2.5982    2.8628    0.1364 H       1  LIG1        0.1071
     17 H           0.9293    4.7208   -0.5869 H       1  LIG1        0.0640
     18 C          -1.7142    5.7549   -0.3148 C.ar    1  LIG1        0.0391
     19 C          -1.2407    6.8683    0.3218 C.ar    1  LIG1        0.0200
     20 C          -2.0096    8.0442    0.0198 C.ar    1  LIG1       -0.0409
     21 C          -3.0478    7.7813   -0.8152 C.ar    1  LIG1       -0.0227
     22 S          -3.1009    6.1295   -1.2831 S.2     1  LIG1       -0.0950
     23 H          -3.7809    8.4756   -1.1927 H       1  LIG1        0.0694
     24 S           0.1697    6.8479    1.3991 S.3     1  LIG1       -0.1415
     25 H          -0.2292    7.8854    2.1387 H       1  LIG1        0.1071
     26 H          -1.7856    9.0232    0.4173 H       1  LIG1        0.0634
@<TRIPOS>BOND
     1     9     3    1
     2    22    21   ar
     3    22    18   ar
     4    23    21    1
     5     7     8    1
     6     7     2    1
     7    21    20   ar
     8    17    12    1
     9     3     2   ar
    10     3     4   ar
    11    12    13   ar
    12    12    11   ar
    13    18    13    1
    14    18    19   ar
    15    15    11    1
    16    15    16    1
    17    13    14   ar
    18    11    10   ar
    19     2     1   ar
    20    10    14   ar
    21    10     4    1
    22    20    19   ar
    23    20    26    1
    24     4     5   ar
    25    19    24    1
    26     1     5   ar
    27     1     6    1
    28    24    25    1
