@<TRIPOS>MOLECULE
mol_data/opt/m06hf/geoms/mol2/5ga5ga-5ga5ga.out
 34 37 0 0 0
SMALL
GASTEIGER

@<TRIPOS>ATOM
      1 C          -1.8114   -1.9783    0.1616 C.ar    1  LIG1       -0.0105
      2 C          -0.5616   -1.8625   -0.3651 C.ar    1  LIG1        0.0124
      3 C          -0.1202   -0.4997   -0.4429 C.ar    1  LIG1       -0.0332
      4 C          -1.0446    0.3737    0.0502 C.ar    1  LIG1        0.0280
      5 S          -2.4684   -0.4514    0.5935 S.2     1  LIG1       -0.0950
      6 H          -2.3694   -2.8873    0.3195 H       1  LIG1        0.0704
      7 S           0.3541   -3.2566   -0.9849 S.3     1  LIG1       -0.1421
      8 H           1.3287   -3.2200   -0.0681 H       1  LIG1        0.1071
      9 H           0.8227   -0.1974   -0.8765 H       1  LIG1        0.0640
     10 C          -0.9166    1.8302    0.1534 C.ar    1  LIG1        0.0397
     11 C           0.1515    2.5336    0.6382 C.ar    1  LIG1        0.0206
     12 C          -0.0575    3.9511    0.5952 C.ar    1  LIG1       -0.0326
     13 C          -1.2788    4.2868    0.0876 C.ar    1  LIG1        0.0286
     14 S          -2.1822    2.8872   -0.3773 S.2     1  LIG1       -0.0861
     15 S           1.6154    1.7540    1.2678 S.3     1  LIG1       -0.1415
     16 H           2.0220    2.8186    1.9661 H       1  LIG1        0.1071
     17 H           0.6542    4.6813    0.9550 H       1  LIG1        0.0640
     18 C          -1.8039    5.6394   -0.1148 C.ar    1  LIG1        0.0397
     19 C          -1.1427    6.7096   -0.6514 C.ar    1  LIG1        0.0206
     20 C          -1.9610    7.8850   -0.7141 C.ar    1  LIG1       -0.0326
     21 C          -3.2176    7.6793   -0.2259 C.ar    1  LIG1        0.0286
     22 S          -3.4227    6.0598    0.3433 S.2     1  LIG1       -0.0861
     23 S           0.5329    6.6224   -1.2273 S.3     1  LIG1       -0.1415
     24 H           0.4961    7.7988   -1.8593 H       1  LIG1        0.1071
     25 H          -1.6384    8.8252   -1.1395 H       1  LIG1        0.0640
     26 C          -4.2940    8.6686   -0.1321 C.ar    1  LIG1        0.0391
     27 C          -4.1929    9.9711    0.2739 C.ar    1  LIG1        0.0200
     28 C          -5.4512   10.6627    0.2208 C.ar    1  LIG1       -0.0409
     29 C          -6.4634    9.8615   -0.2005 C.ar    1  LIG1       -0.0227
     30 S          -5.9218    8.2744   -0.5744 S.2     1  LIG1       -0.0950
     31 H          -7.5026   10.1210   -0.3221 H       1  LIG1        0.0694
     32 S          -2.6663   10.7062    0.7984 S.3     1  LIG1       -0.1415
     33 H          -3.2342   11.6460    1.5590 H       1  LIG1        0.1071
     34 H          -5.5745   11.7014    0.4905 H       1  LIG1        0.0634
@<TRIPOS>BOND
     1    24    23    1
     2    23    19    1
     3    25    20    1
     4     7     2    1
     5     7     8    1
     6     9     3    1
     7    20    19   ar
     8    20    21   ar
     9    19    18   ar
    10    30    29   ar
    11    30    26   ar
    12     3     2   ar
    13     3     4   ar
    14    14    13   ar
    15    14    10   ar
    16     2     1   ar
    17    31    29    1
    18    21    26    1
    19    21    22   ar
    20    29    28   ar
    21    26    27   ar
    22    18    13    1
    23    18    22   ar
    24     4    10    1
    25     4     5   ar
    26    13    12   ar
    27    10    11   ar
    28     1     6    1
    29     1     5   ar
    30    28    27   ar
    31    28    34    1
    32    27    32    1
    33    12    11   ar
    34    12    17    1
    35    11    15    1
    36    32    33    1
    37    15    16    1
