@<TRIPOS>MOLECULE
mol_data/opt/m06hf/geoms/mol2/5ga5ga5ga5ga-.out
 34 37 0 0 0
SMALL
GASTEIGER

@<TRIPOS>ATOM
      1 C          -1.8045   -1.9767    0.1948 C.ar    1  LIG1       -0.0105
      2 C          -0.5583   -1.8642   -0.3410 C.ar    1  LIG1        0.0124
      3 C          -0.1186   -0.5018   -0.4329 C.ar    1  LIG1       -0.0332
      4 C          -1.0404    0.3749    0.0593 C.ar    1  LIG1        0.0280
      5 S          -2.4599   -0.4469    0.6186 S.2     1  LIG1       -0.0950
      6 H          -2.3607   -2.8848    0.3638 H       1  LIG1        0.0704
      7 S           0.3546   -3.2626   -0.9555 S.3     1  LIG1       -0.1421
      8 H           1.3354   -3.2173   -0.0459 H       1  LIG1        0.1071
      9 H           0.8212   -0.2022   -0.8751 H       1  LIG1        0.0640
     10 C          -0.9130    1.8323    0.1496 C.ar    1  LIG1        0.0397
     11 C           0.1577    2.5405    0.6214 C.ar    1  LIG1        0.0206
     12 C          -0.0527    3.9575    0.5679 C.ar    1  LIG1       -0.0326
     13 C          -1.2776    4.2880    0.0657 C.ar    1  LIG1        0.0286
     14 S          -2.1829    2.8839   -0.3815 S.2     1  LIG1       -0.0861
     15 S           1.6264    1.7674    1.2478 S.3     1  LIG1       -0.1415
     16 H           2.0365    2.8378    1.9347 H       1  LIG1        0.1071
     17 H           0.6607    4.6911    0.9169 H       1  LIG1        0.0640
     18 C          -1.8051    5.6384   -0.1446 C.ar    1  LIG1        0.0397
     19 C          -1.1484    6.7046   -0.6946 C.ar    1  LIG1        0.0206
     20 C          -1.9681    7.8787   -0.7621 C.ar    1  LIG1       -0.0326
     21 C          -3.2214    7.6763   -0.2639 C.ar    1  LIG1        0.0286
     22 S          -3.4214    6.0615    0.3203 S.2     1  LIG1       -0.0861
     23 S           0.5235    6.6138   -1.2809 S.3     1  LIG1       -0.1415
     24 H           0.4813    7.7844   -1.9231 H       1  LIG1        0.1071
     25 H          -1.6491    8.8154   -1.1979 H       1  LIG1        0.0640
     26 C          -4.2980    8.6653   -0.1717 C.ar    1  LIG1        0.0391
     27 C          -4.1956    9.9717    0.2215 C.ar    1  LIG1        0.0200
     28 C          -5.4550   10.6614    0.1707 C.ar    1  LIG1       -0.0409
     29 C          -6.4691    9.8554   -0.2364 C.ar    1  LIG1       -0.0227
     30 S          -5.9284    8.2654   -0.5991 S.2     1  LIG1       -0.0950
     31 H          -7.5095   10.1126   -0.3533 H       1  LIG1        0.0694
     32 S          -2.6663   10.7133    0.7287 S.3     1  LIG1       -0.1415
     33 H          -3.2300   11.6589    1.4850 H       1  LIG1        0.1071
     34 H          -5.5776   11.7024    0.4317 H       1  LIG1        0.0634
@<TRIPOS>BOND
     1    24    23    1
     2    23    19    1
     3    25    20    1
     4     7     2    1
     5     7     8    1
     6     9     3    1
     7    20    19   ar
     8    20    21   ar
     9    19    18   ar
    10    30    29   ar
    11    30    26   ar
    12     3     2   ar
    13     3     4   ar
    14    14    13   ar
    15    14    10   ar
    16    31    29    1
    17     2     1   ar
    18    21    26    1
    19    21    22   ar
    20    29    28   ar
    21    26    27   ar
    22    18    13    1
    23    18    22   ar
    24     4    10    1
    25     4     5   ar
    26    13    12   ar
    27    10    11   ar
    28    28    27   ar
    29    28    34    1
    30     1     6    1
    31     1     5   ar
    32    27    32    1
    33    12    11   ar
    34    12    17    1
    35    11    15    1
    36    32    33    1
    37    15    16    1
