@<TRIPOS>MOLECULE
mol_data/opt/m06hf/geoms/mol2/5ga5ga-.out
 18 19 0 0 0
SMALL
GASTEIGER

@<TRIPOS>ATOM
      1 C          -1.8922   -1.7479    0.4857 C.ar    1  LIG1       -0.0105
      2 C          -0.7434   -1.7284   -0.2439 C.ar    1  LIG1        0.0124
      3 C          -0.2992   -0.3964   -0.5376 C.ar    1  LIG1       -0.0332
      4 C          -1.1150    0.5540    0.0022 C.ar    1  LIG1        0.0280
      5 S          -2.4410   -0.1645    0.8567 S.2     1  LIG1       -0.0950
      6 H          -2.4322   -2.6178    0.8234 H       1  LIG1        0.0704
      7 S           0.0520   -3.2072   -0.8376 S.3     1  LIG1       -0.1421
      8 H           1.0696   -3.1890    0.0330 H       1  LIG1        0.1071
      9 H           0.5663   -0.1730   -1.1456 H       1  LIG1        0.0640
     10 C          -0.9566    2.0096   -0.0733 C.ar    1  LIG1        0.0390
     11 C           0.1789    2.7379    0.1481 C.ar    1  LIG1        0.0200
     12 C          -0.0270    4.1491   -0.0320 C.ar    1  LIG1       -0.0409
     13 C          -1.3101    4.4460   -0.3604 C.ar    1  LIG1       -0.0227
     14 S          -2.2863    3.0372   -0.4957 S.2     1  LIG1       -0.0950
     15 H          -1.7353    5.4198   -0.5414 H       1  LIG1        0.0694
     16 S           1.7283    2.0002    0.6023 S.3     1  LIG1       -0.1415
     17 H           2.1939    3.0771    1.2448 H       1  LIG1        0.1071
     18 H           0.7534    4.8864    0.0859 H       1  LIG1        0.0634
@<TRIPOS>BOND
     1     9     3    1
     2     7     2    1
     3     7     8    1
     4    15    13    1
     5     3     2   ar
     6     3     4   ar
     7    14    13   ar
     8    14    10   ar
     9    13    12   ar
    10     2     1   ar
    11    10     4    1
    12    10    11   ar
    13    12    18    1
    14    12    11   ar
    15     4     5   ar
    16    11    16    1
    17     1     6    1
    18     1     5   ar
    19    16    17    1
