@<TRIPOS>MOLECULE
mol_data/opt/m06hf/geoms/mol2/5ga5ga-5ga-5ga.out
 34 37 0 0 0
SMALL
GASTEIGER

@<TRIPOS>ATOM
      1 C          -1.8254   -1.9063    0.2735 C.ar    1  LIG1       -0.0105
      2 C          -0.5266   -1.7684    0.6564 C.ar    1  LIG1        0.0124
      3 C          -0.0520   -0.4215    0.5217 C.ar    1  LIG1       -0.0332
      4 C          -1.0118    0.4216    0.0432 C.ar    1  LIG1        0.0280
      5 S          -2.4946   -0.4206   -0.2666 S.2     1  LIG1       -0.0950
      6 H          -2.4149   -2.8091    0.2857 H       1  LIG1        0.0704
      7 S           0.4725   -3.1348    1.2079 S.3     1  LIG1       -0.1421
      8 H           0.4851   -2.7887    2.5010 H       1  LIG1        0.1071
      9 H           0.9463   -0.1069    0.7924 H       1  LIG1        0.0640
     10 C          -0.8743    1.8537   -0.2384 C.ar    1  LIG1        0.0397
     11 C           0.1322    2.4690   -0.9304 C.ar    1  LIG1        0.0206
     12 C          -0.0465    3.8891   -1.0154 C.ar    1  LIG1       -0.0326
     13 C          -1.1851    4.3135   -0.3940 C.ar    1  LIG1        0.0286
     14 S          -2.0394    2.9999    0.3367 S.2     1  LIG1       -0.0861
     15 S           1.4872    1.5773   -1.6474 S.3     1  LIG1       -0.1415
     16 H           1.7928    2.5232   -2.5413 H       1  LIG1        0.1071
     17 H           0.6233    4.5526   -1.5448 H       1  LIG1        0.0640
     18 C          -1.6737    5.6909   -0.2927 C.ar    1  LIG1        0.0397
     19 C          -0.9446    6.8144   -0.0151 C.ar    1  LIG1        0.0206
     20 C          -1.7448    8.0042   -0.0266 C.ar    1  LIG1       -0.0326
     21 C          -3.0610    7.7504   -0.2780 C.ar    1  LIG1        0.0286
     22 S          -3.3455    6.0660   -0.5414 S.2     1  LIG1       -0.0861
     23 S           0.7988    6.7816    0.3074 S.3     1  LIG1       -0.1415
     24 H           0.8292    7.9696    0.9184 H       1  LIG1        0.1071
     25 H          -1.3513    9.0003    0.1212 H       1  LIG1        0.0640
     26 C          -4.1520    8.7279   -0.3310 C.ar    1  LIG1        0.0391
     27 C          -4.4065    9.7407    0.5518 C.ar    1  LIG1        0.0200
     28 C          -5.5545   10.5201    0.1774 C.ar    1  LIG1       -0.0409
     29 C          -6.1412   10.0624   -0.9586 C.ar    1  LIG1       -0.0227
     30 S          -5.3073    8.7142   -1.6206 S.2     1  LIG1       -0.0950
     31 H          -7.0160   10.4545   -1.4516 H       1  LIG1        0.0694
     32 S          -3.4153   10.0467    1.9917 S.3     1  LIG1       -0.1415
     33 H          -4.3928   10.6386    2.6836 H       1  LIG1        0.1071
     34 H          -5.9098   11.3707    0.7403 H       1  LIG1        0.0634
@<TRIPOS>BOND
     1    16    15    1
     2    15    11    1
     3    30    29   ar
     4    30    26   ar
     5    17    12    1
     6    31    29    1
     7    12    11   ar
     8    12    13   ar
     9    29    28   ar
    10    11    10   ar
    11    22    18   ar
    12    22    21   ar
    13    13    18    1
    14    13    14   ar
    15    26    21    1
    16    26    27   ar
    17    18    19   ar
    18    21    20   ar
    19     5     4   ar
    20     5     1   ar
    21    10     4    1
    22    10    14   ar
    23    20    19   ar
    24    20    25    1
    25    19    23    1
    26     4     3   ar
    27    28    27   ar
    28    28    34    1
    29     1     6    1
    30     1     2   ar
    31    23    24    1
    32     3     2   ar
    33     3     9    1
    34    27    32    1
    35     2     7    1
    36     7     8    1
    37    32    33    1
