@<TRIPOS>MOLECULE
mol_data/opt/m06hf/geoms/mol2/5ga5ga5ga-5ga-.out
 34 37 0 0 0
SMALL
GASTEIGER

@<TRIPOS>ATOM
      1 C          -1.3668   -1.9100    0.9957 C.ar    1  LIG1       -0.0105
      2 C          -0.7647   -1.8757   -0.2239 C.ar    1  LIG1        0.0124
      3 C          -0.5251   -0.5381   -0.6832 C.ar    1  LIG1       -0.0332
      4 C          -0.9314    0.4010    0.2182 C.ar    1  LIG1        0.0280
      5 S          -1.6322   -0.3335    1.6236 S.2     1  LIG1       -0.0950
      6 H          -1.6592   -2.7858    1.5524 H       1  LIG1        0.0704
      7 S          -0.4038   -3.3407   -1.1699 S.3     1  LIG1       -0.1421
      8 H           0.9244   -3.2934   -1.0068 H       1  LIG1        0.1071
      9 H          -0.1009   -0.3039   -1.6492 H       1  LIG1        0.0640
     10 C          -0.8163    1.8567    0.0969 C.ar    1  LIG1        0.0397
     11 C           0.2705    2.5793   -0.3147 C.ar    1  LIG1        0.0206
     12 C           0.0184    3.9904   -0.3385 C.ar    1  LIG1       -0.0326
     13 C          -1.2372    4.3076    0.0884 C.ar    1  LIG1        0.0286
     14 S          -2.1506    2.8934    0.4863 S.2     1  LIG1       -0.0861
     15 S           1.8126    1.8448   -0.7975 S.3     1  LIG1       -0.1415
     16 H           2.5734    2.8151   -0.2818 H       1  LIG1        0.1071
     17 H           0.7335    4.7254   -0.6809 H       1  LIG1        0.0640
     18 C          -1.8050    5.6519    0.2250 C.ar    1  LIG1        0.0397
     19 C          -1.2208    6.7345    0.8217 C.ar    1  LIG1        0.0206
     20 C          -2.0559    7.8995    0.7827 C.ar    1  LIG1       -0.0326
     21 C          -3.2483    7.6714    0.1612 C.ar    1  LIG1        0.0286
     22 S          -3.3666    6.0438   -0.4111 S.2     1  LIG1       -0.0861
     23 S           0.3804    6.6696    1.5828 S.3     1  LIG1       -0.1415
     24 H           0.2590    7.8445    2.2088 H       1  LIG1        0.1071
     25 H          -1.7936    8.8495    1.2275 H       1  LIG1        0.0640
     26 C          -4.3164    8.6466   -0.0737 C.ar    1  LIG1        0.0391
     27 C          -4.1807    9.9257   -0.5374 C.ar    1  LIG1        0.0200
     28 C          -5.4406   10.6090   -0.6418 C.ar    1  LIG1       -0.0409
     29 C          -6.4855    9.8234   -0.2742 C.ar    1  LIG1       -0.0227
     30 S          -5.9774    8.2640    0.2362 S.2     1  LIG1       -0.0950
     31 H          -7.5322   10.0815   -0.2656 H       1  LIG1        0.0694
     32 S          -2.6121   10.6375   -0.9610 S.3     1  LIG1       -0.1415
     33 H          -3.1193   11.5817   -1.7582 H       1  LIG1        0.1071
     34 H          -5.5421   11.6293   -0.9804 H       1  LIG1        0.0634
@<TRIPOS>BOND
     1    33    32    1
     2     9     3    1
     3     7     8    1
     4     7     2    1
     5    34    28    1
     6    32    27    1
     7    15    11    1
     8    15    16    1
     9     3     2   ar
    10     3     4   ar
    11    17    12    1
    12    28    27   ar
    13    28    29   ar
    14    27    26   ar
    15    22    21   ar
    16    22    18   ar
    17    12    11   ar
    18    12    13   ar
    19    11    10   ar
    20    29    31    1
    21    29    30   ar
    22     2     1   ar
    23    26    21    1
    24    26    30   ar
    25    13    18    1
    26    13    14   ar
    27    10     4    1
    28    10    14   ar
    29    21    20   ar
    30     4     5   ar
    31    18    19   ar
    32    20    19   ar
    33    20    25    1
    34    19    23    1
    35     1     6    1
    36     1     5   ar
    37    23    24    1
