@<TRIPOS>MOLECULE
mol_data/opt/m06hf/geoms/mol2/5ga5ga-5ga-.out
 26 28 0 0 0
SMALL
GASTEIGER

@<TRIPOS>ATOM
      1 C          -1.9159   -1.8535   -0.0234 C.ar    1  LIG1       -0.0105
      2 C          -0.6886   -1.7404    0.5538 C.ar    1  LIG1        0.0124
      3 C          -0.2174   -0.3861    0.5872 C.ar    1  LIG1       -0.0332
      4 C          -1.0946    0.4825    0.0067 C.ar    1  LIG1        0.0280
      5 S          -2.5101   -0.3355   -0.5653 S.2     1  LIG1       -0.0950
      6 H          -2.4883   -2.7563   -0.1640 H       1  LIG1        0.0704
      7 S           0.1846   -3.1262    1.2530 S.3     1  LIG1       -0.1421
      8 H           1.1452   -3.1723    0.3216 H       1  LIG1        0.1071
      9 H           0.7111   -0.0845    1.0509 H       1  LIG1        0.0640
     10 C          -0.9262    1.9284   -0.1658 C.ar    1  LIG1        0.0397
     11 C           0.1803    2.5834   -0.6316 C.ar    1  LIG1        0.0206
     12 C          -0.0002    4.0050   -0.6755 C.ar    1  LIG1       -0.0326
     13 C          -1.2379    4.3913   -0.2546 C.ar    1  LIG1        0.0286
     14 S          -2.1929    3.0378    0.2421 S.2     1  LIG1       -0.0861
     15 S           1.6580    1.7485   -1.1493 S.3     1  LIG1       -0.1415
     16 H           2.0937    2.7560   -1.9119 H       1  LIG1        0.1071
     17 H           0.7458    4.6993   -1.0365 H       1  LIG1        0.0640
     18 C          -1.7527    5.7618   -0.1684 C.ar    1  LIG1        0.0391
     19 C          -1.1428    6.8494    0.3930 C.ar    1  LIG1        0.0200
     20 C          -1.9377    8.0418    0.2865 C.ar    1  LIG1       -0.0409
     21 C          -3.1271    7.8162   -0.3284 C.ar    1  LIG1       -0.0227
     22 S          -3.2989    6.1802   -0.8262 S.2     1  LIG1       -0.0950
     23 H          -3.9099    8.5293   -0.5304 H       1  LIG1        0.0694
     24 S           0.4589    6.7805    1.1541 S.3     1  LIG1       -0.1415
     25 H           0.2029    7.7231    2.0650 H       1  LIG1        0.1071
     26 H          -1.6214    9.0049    0.6586 H       1  LIG1        0.0634
@<TRIPOS>BOND
     1    16    15    1
     2    15    11    1
     3    17    12    1
     4    22    21   ar
     5    22    18   ar
     6    12    11   ar
     7    12    13   ar
     8    11    10   ar
     9     5     1   ar
    10     5     4   ar
    11    23    21    1
    12    21    20   ar
    13    13    18    1
    14    13    14   ar
    15    18    19   ar
    16    10     4    1
    17    10    14   ar
    18     6     1    1
    19     1     2   ar
    20     4     3   ar
    21    20    19   ar
    22    20    26    1
    23     8     7    1
    24    19    24    1
    25     2     3   ar
    26     2     7    1
    27     3     9    1
    28    24    25    1
