@<TRIPOS>MOLECULE
mol_data/opt/m06hf/geoms/mol2/5gd.out
 11 11 0 0 0
SMALL
GASTEIGER

@<TRIPOS>ATOM
      1 C          -2.1287   -1.6743    0.0001 C.ar    1  LIG1       -0.0099
      2 C          -0.7688   -1.6713   -0.0003 C.ar    1  LIG1        0.0292
      3 C          -0.2534   -0.3244   -0.0001 C.ar    1  LIG1        0.0719
      4 C          -1.2333    0.6260    0.0004 C.ar    1  LIG1       -0.0059
      5 S          -2.7839   -0.0835    0.0007 S.2     1  LIG1       -0.1027
      6 H          -2.7816   -2.5324    0.0000 H       1  LIG1        0.0705
      7 H          -1.1007    1.6960    0.0006 H       1  LIG1        0.0706
      8 S           0.2102   -3.1455   -0.0010 S.3     1  LIG1       -0.1409
      9 H           1.3921   -2.5194   -0.0011 H       1  LIG1        0.1072
     10 N           2.2838    0.1814   -0.0008 N.1     1  LIG1       -0.1908
     11 C           1.1533   -0.0194   -0.0005 C.1     1  LIG1        0.1008
@<TRIPOS>BOND
     1     9     8    1
     2     8     2    1
     3    10    11    3
     4    11     3    1
     5     2     3   ar
     6     2     1   ar
     7     3     4   ar
     8     6     1    1
     9     1     5   ar
    10     4     7    1
    11     4     5   ar
