@<TRIPOS>MOLECULE
mol_data/opt/m06hf/geoms/mol2/5gd5gd-5gd5gd-.out
 38 41 0 0 0
SMALL
GASTEIGER

@<TRIPOS>ATOM
      1 C          -0.4986   -1.5214    2.3294 C.ar    1  LIG1       -0.0093
      2 C          -0.7244   -1.7423    1.0053 C.ar    1  LIG1        0.0298
      3 C          -0.7380   -0.5055    0.2711 C.ar    1  LIG1        0.0802
      4 C          -0.5168    0.5968    1.0558 C.ar    1  LIG1        0.0454
      5 S          -0.2893    0.1447    2.6933 S.2     1  LIG1       -0.0937
      6 H          -0.4411   -2.2601    3.1131 H       1  LIG1        0.0705
      7 S          -0.9760   -3.3470    0.3029 S.3     1  LIG1       -0.1408
      8 H          -1.1280   -2.9093   -0.9509 H       1  LIG1        0.1072
      9 N          -1.2050   -0.4087   -2.2703 N.1     1  LIG1       -0.1908
     10 C          -0.9918   -0.4253   -1.1425 C.1     1  LIG1        0.1014
     11 C          -0.4491    1.9925    0.6010 C.ar    1  LIG1        0.0422
     12 C           0.5086    2.5286   -0.2146 C.ar    1  LIG1        0.0381
     13 C           0.2402    3.9148   -0.4812 C.ar    1  LIG1        0.0808
     14 C          -0.8917    4.3810    0.1360 C.ar    1  LIG1        0.0460
     15 S          -1.6531    3.1484    1.0497 S.2     1  LIG1       -0.0847
     16 S           1.8805    1.6039   -0.8229 S.3     1  LIG1       -0.1402
     17 H           2.4389    2.6307   -1.4735 H       1  LIG1        0.1072
     18 N           1.7611    5.3518   -1.9996 N.1     1  LIG1       -0.1908
     19 C           1.0703    4.7357   -1.3211 C.1     1  LIG1        0.1014
     20 C          -1.4215    5.7518    0.0716 C.ar    1  LIG1        0.0422
     21 C          -0.9068    6.8455    0.7094 C.ar    1  LIG1        0.0381
     22 C          -1.6597    8.0279    0.3921 C.ar    1  LIG1        0.0808
     23 C          -2.7092    7.7945   -0.4594 C.ar    1  LIG1        0.0460
     24 S          -2.8041    6.1385   -0.8877 S.2     1  LIG1       -0.0847
     25 S           0.4798    6.7569    1.7927 S.3     1  LIG1       -0.1402
     26 H           0.5786    8.0788    1.9773 H       1  LIG1        0.1072
     27 N          -1.0160   10.3493    1.3293 N.1     1  LIG1       -0.1908
     28 C          -1.3275    9.3315    0.9001 C.1     1  LIG1        0.1014
     29 C          -3.6768    8.7851   -0.9518 C.ar    1  LIG1        0.0416
     30 C          -4.6278    9.4214   -0.2068 C.ar    1  LIG1        0.0375
     31 C          -5.3901   10.3352   -1.0189 C.ar    1  LIG1        0.0725
     32 C          -4.9963   10.3516   -2.3255 C.ar    1  LIG1       -0.0052
     33 S          -3.7017    9.2792   -2.6097 S.2     1  LIG1       -0.0937
     34 H          -5.4142   10.9503   -3.1192 H       1  LIG1        0.0707
     35 S          -4.8803    9.1004    1.5079 S.3     1  LIG1       -0.1403
     36 H          -5.8781    9.9807    1.6524 H       1  LIG1        0.1072
     37 N          -7.3110   11.7555   -0.0278 N.1     1  LIG1       -0.1908
     38 C          -6.4624   11.1373   -0.4921 C.1     1  LIG1        0.1008
@<TRIPOS>BOND
     1    34    32    1
     2    33    32   ar
     3    33    29   ar
     4    32    31   ar
     5     9    10    3
     6    18    19    3
     7    17    16    1
     8    19    13    1
     9    10     3    1
    10    31    38    1
    11    31    30   ar
    12    29    23    1
    13    29    30   ar
    14     8     7    1
    15    24    23   ar
    16    24    20   ar
    17    16    12    1
    18    38    37    3
    19    13    12   ar
    20    13    14   ar
    21    23    22   ar
    22    12    11   ar
    23    30    35    1
    24    20    14    1
    25    20    21   ar
    26    14    15   ar
    27     3     2   ar
    28     3     4   ar
    29     7     2    1
    30    22    21   ar
    31    22    28    1
    32    11    15   ar
    33    11     4    1
    34    21    25    1
    35    28    27    3
    36     2     1   ar
    37     4     5   ar
    38    35    36    1
    39    25    26    1
    40     1     5   ar
    41     1     6    1
