@<TRIPOS>MOLECULE
mol_data/opt/m06hf/geoms/mol2/5gd5gd-5gd-.out
 29 31 0 0 0
SMALL
GASTEIGER

@<TRIPOS>ATOM
      1 C          -1.8106   -1.9289   -0.3937 C.ar    1  LIG1       -0.0093
      2 C          -0.7396   -1.7779    0.4328 C.ar    1  LIG1        0.0298
      3 C          -0.3178   -0.4026    0.4882 C.ar    1  LIG1        0.0802
      4 C          -1.0730    0.4310   -0.2955 C.ar    1  LIG1        0.0454
      5 S          -2.2970   -0.4468   -1.1170 S.2     1  LIG1       -0.0937
      6 H          -2.3407   -2.8416   -0.6131 H       1  LIG1        0.0705
      7 S           0.0288   -3.1175    1.2943 S.3     1  LIG1       -0.1408
      8 H           0.7638   -2.3426    2.0981 H       1  LIG1        0.1072
      9 N           1.6096    0.3654    2.0304 N.1     1  LIG1       -0.1908
     10 C           0.7547    0.0553    1.3298 C.1     1  LIG1        0.1014
     11 C          -0.8984    1.8786   -0.4627 C.ar    1  LIG1        0.0422
     12 C           0.2018    2.5124   -0.9711 C.ar    1  LIG1        0.0381
     13 C           0.0185    3.9381   -0.9729 C.ar    1  LIG1        0.0808
     14 C          -1.1961    4.3370   -0.4781 C.ar    1  LIG1        0.0460
     15 S          -2.1342    2.9904    0.0166 S.2     1  LIG1       -0.0847
     16 S           1.6126    1.6570   -1.5939 S.3     1  LIG1       -0.1402
     17 H           2.2596    2.7681   -1.9673 H       1  LIG1        0.1072
     18 N           1.7914    5.5654   -1.9195 N.1     1  LIG1       -0.1908
     19 C           0.9932    4.8623   -1.4884 C.1     1  LIG1        0.1014
     20 C          -1.6703    5.7207   -0.3377 C.ar    1  LIG1        0.0416
     21 C          -1.1968    6.6476    0.5462 C.ar    1  LIG1        0.0375
     22 C          -1.8793    7.9063    0.3852 C.ar    1  LIG1        0.0725
     23 C          -2.8283    7.8836   -0.5956 C.ar    1  LIG1       -0.0052
     24 S          -2.9222    6.3572   -1.3482 S.2     1  LIG1       -0.0937
     25 H          -3.4634    8.7008   -0.8984 H       1  LIG1        0.0707
     26 S           0.0492    6.2907    1.7401 S.3     1  LIG1       -0.1403
     27 H           0.1101    7.5384    2.2221 H       1  LIG1        0.1072
     28 N          -1.3268    9.9566    1.8618 N.1     1  LIG1       -0.1908
     29 C          -1.5883    9.0616    1.1920 C.1     1  LIG1        0.1008
@<TRIPOS>BOND
     1    17    16    1
     2    18    19    3
     3    16    12    1
     4    19    13    1
     5    24    23   ar
     6    24    20   ar
     7     5     1   ar
     8     5     4   ar
     9    13    12   ar
    10    13    14   ar
    11    12    11   ar
    12    25    23    1
    13     6     1    1
    14    23    22   ar
    15    14    20    1
    16    14    15   ar
    17    11     4    1
    18    11    15   ar
    19     1     2   ar
    20    20    21   ar
    21     4     3   ar
    22    22    21   ar
    23    22    29    1
    24     2     3   ar
    25     2     7    1
    26     3    10    1
    27    21    26    1
    28    29    28    3
    29     7     8    1
    30    10     9    3
    31    26    27    1
