@<TRIPOS>MOLECULE
mol_data/opt/m06hf/geoms/mol2/5gd5gd5gd5gd.out
 38 41 0 0 0
SMALL
GASTEIGER

@<TRIPOS>ATOM
      1 C          -1.5519   -2.1160    0.2304 C.ar    1  LIG1       -0.0093
      2 C          -0.3131   -1.8946   -0.2870 C.ar    1  LIG1        0.0298
      3 C           0.0034   -0.4904   -0.2913 C.ar    1  LIG1        0.0802
      4 C          -0.9945    0.2945    0.2269 C.ar    1  LIG1        0.0454
      5 S          -2.3249   -0.6655    0.7318 S.2     1  LIG1       -0.0937
      6 H          -2.0506   -3.0651    0.3440 H       1  LIG1        0.0705
      7 S           0.7612   -3.1834   -0.8483 S.3     1  LIG1       -0.1408
      8 H           1.6357   -2.3671   -1.4470 H       1  LIG1        0.1072
      9 N           2.2027    0.4077   -1.3106 N.1     1  LIG1       -0.1908
     10 C           1.2216    0.0387   -0.8430 C.1     1  LIG1        0.1014
     11 C          -0.9782    1.7560    0.3640 C.ar    1  LIG1        0.0422
     12 C          -0.0955    2.4966    1.0999 C.ar    1  LIG1        0.0381
     13 C          -0.3738    3.9015    0.9769 C.ar    1  LIG1        0.0808
     14 C          -1.4434    4.1805    0.1658 C.ar    1  LIG1        0.0460
     15 S          -2.1295    2.7432   -0.4697 S.2     1  LIG1       -0.0847
     16 S           1.1517    1.7867    2.1246 S.3     1  LIG1       -0.1402
     17 H           1.7387    2.9521    2.4212 H       1  LIG1        0.1072
     18 N           0.9918    5.7000    2.2372 N.1     1  LIG1       -0.1908
     19 C           0.3742    4.9191    1.6659 C.1     1  LIG1        0.1014
     20 C          -1.9498    5.5166   -0.1760 C.ar    1  LIG1        0.0422
     21 C          -1.3058    6.4433   -0.9471 C.ar    1  LIG1        0.0381
     22 C          -2.0812    7.6490   -1.0590 C.ar    1  LIG1        0.0808
     23 C          -3.2685    7.6027   -0.3746 C.ar    1  LIG1        0.0460
     24 S          -3.4655    6.0961    0.4228 S.2     1  LIG1       -0.0847
     25 S           0.2469    6.1327   -1.7220 S.3     1  LIG1       -0.1402
     26 H           0.3449    7.3453   -2.2809 H       1  LIG1        0.1072
     27 N          -1.2871    9.6384   -2.5064 N.1     1  LIG1       -0.1908
     28 C          -1.6653    8.7744   -1.8519 C.1     1  LIG1        0.1014
     29 C          -4.2591    8.6801   -0.2622 C.ar    1  LIG1        0.0416
     30 C          -4.0543    9.9049    0.3077 C.ar    1  LIG1        0.0375
     31 C          -5.2472   10.7105    0.2346 C.ar    1  LIG1        0.0725
     32 C          -6.2922   10.0742   -0.3691 C.ar    1  LIG1       -0.0052
     33 S          -5.8704    8.4998   -0.8692 S.2     1  LIG1       -0.0937
     34 H          -7.2801   10.4715   -0.5387 H       1  LIG1        0.0707
     35 S          -2.5410   10.3670    1.0831 S.3     1  LIG1       -0.1403
     36 H          -2.9287   11.6154    1.3668 H       1  LIG1        0.1072
     37 N          -5.3265   13.1142    1.1863 N.1     1  LIG1       -0.1908
     38 C          -5.3175   12.0497    0.7567 C.1     1  LIG1        0.1008
@<TRIPOS>BOND
     1    27    28    3
     2    26    25    1
     3    28    22    1
     4    25    21    1
     5     8     7    1
     6     9    10    3
     7    22    21   ar
     8    22    23   ar
     9    21    20   ar
    10    33    32   ar
    11    33    29   ar
    12     7     2    1
    13    10     3    1
    14    34    32    1
    15    15    14   ar
    16    15    11   ar
    17    23    29    1
    18    23    24   ar
    19    32    31   ar
    20     3     2   ar
    21     3     4   ar
    22     2     1   ar
    23    29    30   ar
    24    20    14    1
    25    20    24   ar
    26    14    13   ar
    27     4    11    1
    28     4     5   ar
    29     1     6    1
    30     1     5   ar
    31    31    30   ar
    32    31    38    1
    33    30    35    1
    34    11    12   ar
    35    38    37    3
    36    13    12   ar
    37    13    19    1
    38    35    36    1
    39    12    16    1
    40    19    18    3
    41    16    17    1
