@<TRIPOS>MOLECULE
mol_data/opt/m06hf/geoms/mol2/5gd5gd5gd-.out
 29 31 0 0 0
SMALL
GASTEIGER

@<TRIPOS>ATOM
      1 C          -1.5686   -1.6758    1.5841 C.ar    1  LIG1       -0.0093
      2 C          -0.8380   -1.8246    0.4454 C.ar    1  LIG1        0.0298
      3 C          -0.4604   -0.5470   -0.0984 C.ar    1  LIG1        0.0802
      4 C          -0.9086    0.5144    0.6443 C.ar    1  LIG1        0.0454
      5 S          -1.7800   -0.0265    2.0195 S.2     1  LIG1       -0.0937
      6 H          -1.9924   -2.4584    2.1926 H       1  LIG1        0.0705
      7 S          -0.3900   -3.3968   -0.2312 S.3     1  LIG1       -0.1408
      8 H          -0.0482   -2.9221   -1.4334 H       1  LIG1        0.1072
      9 N           0.8332   -0.3209   -2.3258 N.1     1  LIG1       -0.1908
     10 C           0.2659   -0.3955   -1.3307 C.1     1  LIG1        0.1014
     11 C          -0.6950    1.9385    0.3564 C.ar    1  LIG1        0.0422
     12 C           0.5054    2.5904    0.3148 C.ar    1  LIG1        0.0381
     13 C           0.3296    3.9748   -0.0342 C.ar    1  LIG1        0.0808
     14 C          -0.9804    4.3303   -0.2271 C.ar    1  LIG1        0.0460
     15 S          -2.0249    2.9886    0.0030 S.2     1  LIG1       -0.0847
     16 S           2.0406    1.8126    0.6936 S.3     1  LIG1       -0.1402
     17 H           2.7911    2.8765    0.3883 H       1  LIG1        0.1072
     18 N           2.3408    5.5736   -0.3180 N.1     1  LIG1       -0.1908
     19 C           1.4284    4.8884   -0.1953 C.1     1  LIG1        0.1014
     20 C          -1.4892    5.6643   -0.5698 C.ar    1  LIG1        0.0416
     21 C          -1.3967    6.7899    0.1979 C.ar    1  LIG1        0.0375
     22 C          -2.0037    7.9158   -0.4653 C.ar    1  LIG1        0.0725
     23 C          -2.5298    7.6038   -1.6857 C.ar    1  LIG1       -0.0052
     24 S          -2.3033    5.9591   -2.0696 S.2     1  LIG1       -0.0937
     25 H          -3.0305    8.2758   -2.3642 H       1  LIG1        0.0707
     26 S          -0.6841    6.8062    1.8100 S.3     1  LIG1       -0.1403
     27 H          -0.7843    8.1309    1.9690 H       1  LIG1        0.1072
     28 N          -2.0650   10.2677    0.6089 N.1     1  LIG1       -0.1908
     29 C          -2.0499    9.2329    0.1127 C.1     1  LIG1        0.1008
@<TRIPOS>BOND
     1    25    23    1
     2     9    10    3
     3    24    23   ar
     4    24    20   ar
     5    23    22   ar
     6     8     7    1
     7    10     3    1
     8    20    14    1
     9    20    21   ar
    10    22    29    1
    11    22    21   ar
    12    18    19    3
    13     7     2    1
    14    14    13   ar
    15    14    15   ar
    16    19    13    1
    17     3     2   ar
    18     3     4   ar
    19    13    12   ar
    20    15    11   ar
    21    29    28    3
    22    21    26    1
    23    12    11   ar
    24    12    16    1
    25    11     4    1
    26    17    16    1
    27     2     1   ar
    28     4     5   ar
    29     1     5   ar
    30     1     6    1
    31    26    27    1
