@<TRIPOS>MOLECULE
mol_data/opt/m06hf/geoms/mol2/5gd5gd-.out
 20 21 0 0 0
SMALL
GASTEIGER

@<TRIPOS>ATOM
      1 C          -1.9302   -1.7122    0.8320 C.ar    1  LIG1       -0.0093
      2 C          -0.7438   -1.8080    0.1728 C.ar    1  LIG1        0.0298
      3 C          -0.2695   -0.5114   -0.2335 C.ar    1  LIG1        0.0802
      4 C          -1.1039    0.5136    0.1309 C.ar    1  LIG1        0.0454
      5 S          -2.4650   -0.0847    0.9877 S.2     1  LIG1       -0.0937
      6 H          -2.5191   -2.5204    1.2344 H       1  LIG1        0.0705
      7 S           0.0927   -3.3414   -0.1102 S.3     1  LIG1       -0.1408
      8 H           0.9567   -2.8545   -1.0078 H       1  LIG1        0.1072
      9 N           1.8941   -0.2169   -1.6190 N.1     1  LIG1       -0.1908
     10 C           0.9336   -0.3182   -0.9983 C.1     1  LIG1        0.1014
     11 C          -0.9039    1.9459   -0.1205 C.ar    1  LIG1        0.0416
     12 C           0.1153    2.7213    0.3542 C.ar    1  LIG1        0.0375
     13 C          -0.0125    4.0802   -0.1081 C.ar    1  LIG1        0.0725
     14 C          -1.1075    4.2823   -0.8969 C.ar    1  LIG1       -0.0052
     15 S          -2.0014    2.8469   -1.1129 S.2     1  LIG1       -0.0937
     16 H          -1.4129    5.2099   -1.3533 H       1  LIG1        0.0707
     17 S           1.3858    2.1140    1.4160 S.3     1  LIG1       -0.1403
     18 H           1.9376    3.3140    1.6240 H       1  LIG1        0.1072
     19 N           1.6670    5.9268    0.5702 N.1     1  LIG1       -0.1908
     20 C           0.9133    5.1214    0.2522 C.1     1  LIG1        0.1008
@<TRIPOS>BOND
     1     9    10    3
     2    16    14    1
     3    15    14   ar
     4    15    11   ar
     5     8     7    1
     6    10     3    1
     7    14    13   ar
     8     3     4   ar
     9     3     2   ar
    10    11     4    1
    11    11    12   ar
    12     7     2    1
    13    13    20    1
    14    13    12   ar
    15     4     5   ar
    16     2     1   ar
    17    20    19    3
    18    12    17    1
    19     1     5   ar
    20     1     6    1
    21    17    18    1
