@<TRIPOS>MOLECULE
mol_data/opt/m06hf/geoms/mol2/5gd5gd5gd5gd-.out
 38 41 0 0 0
SMALL
GASTEIGER

@<TRIPOS>ATOM
      1 C          -1.5806   -2.1181    0.1516 C.ar    1  LIG1       -0.0093
      2 C          -0.3298   -1.8971   -0.3364 C.ar    1  LIG1        0.0298
      3 C          -0.0076   -0.4943   -0.3201 C.ar    1  LIG1        0.0802
      4 C          -1.0132    0.2899    0.1841 C.ar    1  LIG1        0.0454
      5 S          -2.3582   -0.6693    0.6505 S.2     1  LIG1       -0.0937
      6 H          -2.0856   -3.0661    0.2450 H       1  LIG1        0.0705
      7 S           0.7514   -3.1847   -0.8871 S.3     1  LIG1       -0.1408
      8 H           1.6418   -2.3656   -1.4577 H       1  LIG1        0.1072
      9 N           2.2167    0.4031   -1.2843 N.1     1  LIG1       -0.1908
     10 C           1.2242    0.0346   -0.8408 C.1     1  LIG1        0.1014
     11 C          -0.9939    1.7500    0.3355 C.ar    1  LIG1        0.0422
     12 C          -0.1234    2.4801    1.0961 C.ar    1  LIG1        0.0381
     13 C          -0.3938    3.8871    0.9812 C.ar    1  LIG1        0.0808
     14 C          -1.4458    4.1782    0.1516 C.ar    1  LIG1        0.0460
     15 S          -2.1244    2.7498   -0.5116 S.2     1  LIG1       -0.0847
     16 S           1.1001    1.7553    2.1389 S.3     1  LIG1       -0.1402
     17 H           1.6834    2.9157    2.4613 H       1  LIG1        0.1072
     18 N           0.9527    5.6682    2.2858 N.1     1  LIG1       -0.1908
     19 C           0.3440    4.8951    1.6947 C.1     1  LIG1        0.1014
     20 C          -1.9418    5.5195   -0.1848 C.ar    1  LIG1        0.0422
     21 C          -1.2771    6.4576   -0.9239 C.ar    1  LIG1        0.0381
     22 C          -2.0488    7.6656   -1.0375 C.ar    1  LIG1        0.0808
     23 C          -3.2534    7.6101   -0.3849 C.ar    1  LIG1        0.0460
     24 S          -3.4726    6.0907    0.3822 S.2     1  LIG1       -0.0847
     25 S           0.2907    6.1557   -1.6717 S.3     1  LIG1       -0.1402
     26 H           0.4443    7.4034   -2.1300 H       1  LIG1        0.1072
     27 N          -1.2158    9.6772   -2.4315 N.1     1  LIG1       -0.1908
     28 C          -1.6115    8.8030   -1.8014 C.1     1  LIG1        0.1014
     29 C          -4.2455    8.6869   -0.2813 C.ar    1  LIG1        0.0416
     30 C          -4.0536    9.9031    0.3110 C.ar    1  LIG1        0.0375
     31 C          -5.2434   10.7115    0.2199 C.ar    1  LIG1        0.0725
     32 C          -6.2738   10.0854   -0.4187 C.ar    1  LIG1       -0.0052
     33 S          -5.8415    8.5176   -0.9306 S.2     1  LIG1       -0.0937
     34 H          -7.2567   10.4866   -0.6074 H       1  LIG1        0.0707
     35 S          -2.5600   10.3516    1.1313 S.3     1  LIG1       -0.1403
     36 H          -2.9515   11.5979    1.4194 H       1  LIG1        0.1072
     37 N          -5.3427   13.1019    1.2024 N.1     1  LIG1       -0.1908
     38 C          -5.3248   12.0434    0.7585 C.1     1  LIG1        0.1008
@<TRIPOS>BOND
     1    27    28    3
     2    26    25    1
     3    28    22    1
     4    25    21    1
     5     8     7    1
     6     9    10    3
     7    22    21   ar
     8    22    23   ar
     9    33    32   ar
    10    33    29   ar
    11    21    20   ar
    12     7     2    1
    13    10     3    1
    14    34    32    1
    15    15    14   ar
    16    15    11   ar
    17    32    31   ar
    18    23    29    1
    19    23    24   ar
    20     2     3   ar
    21     2     1   ar
    22     3     4   ar
    23    29    30   ar
    24    20    14    1
    25    20    24   ar
    26    14    13   ar
    27     1     6    1
    28     1     5   ar
    29     4    11    1
    30     4     5   ar
    31    31    30   ar
    32    31    38    1
    33    30    35    1
    34    11    12   ar
    35    38    37    3
    36    13    12   ar
    37    13    19    1
    38    12    16    1
    39    35    36    1
    40    19    18    3
    41    16    17    1
