@<TRIPOS>MOLECULE
mol_data/opt/m06hf/geoms/mol2/5gd5gd5gd-5gd.out
 38 41 0 0 0
SMALL
GASTEIGER

@<TRIPOS>ATOM
      1 C          -0.6724   -1.5270    2.2755 C.ar    1  LIG1       -0.0093
      2 C          -0.8162   -1.7314    0.9374 C.ar    1  LIG1        0.0298
      3 C          -0.7456   -0.4912    0.2126 C.ar    1  LIG1        0.0802
      4 C          -0.5522    0.5996    1.0196 C.ar    1  LIG1        0.0454
      5 S          -0.4311    0.1291    2.6654 S.2     1  LIG1       -0.0937
      6 H          -0.7016   -2.2733    3.0535 H       1  LIG1        0.0705
      7 S          -1.0031   -3.3319    0.2046 S.3     1  LIG1       -0.1408
      8 H          -1.6814   -2.9053   -0.8666 H       1  LIG1        0.1072
      9 N          -1.0868   -0.3548   -2.3471 N.1     1  LIG1       -0.1908
     10 C          -0.9218   -0.3945   -1.2121 C.1     1  LIG1        0.1014
     11 C          -0.4394    1.9996    0.5869 C.ar    1  LIG1        0.0422
     12 C           0.5817    2.5407   -0.1434 C.ar    1  LIG1        0.0381
     13 C           0.3381    3.9305   -0.4185 C.ar    1  LIG1        0.0808
     14 C          -0.8381    4.3945    0.1123 C.ar    1  LIG1        0.0460
     15 S          -1.6721    3.1539    0.9501 S.2     1  LIG1       -0.0847
     16 S           1.9899    1.6149   -0.6578 S.3     1  LIG1       -0.1402
     17 H           2.6501    2.6650   -1.1599 H       1  LIG1        0.1072
     18 N           1.9811    5.3610   -1.8106 N.1     1  LIG1       -0.1908
     19 C           1.2331    4.7504   -1.1900 C.1     1  LIG1        0.1014
     20 C          -1.3666    5.7630    0.0200 C.ar    1  LIG1        0.0422
     21 C          -0.8550    6.8733    0.6315 C.ar    1  LIG1        0.0381
     22 C          -1.6234    8.0422    0.3000 C.ar    1  LIG1        0.0808
     23 C          -2.6833    7.7835   -0.5305 C.ar    1  LIG1        0.0460
     24 S          -2.7654    6.1198   -0.9305 S.2     1  LIG1       -0.0847
     25 S           0.5467    6.8318    1.6992 S.3     1  LIG1       -0.1402
     26 H           0.5165    8.1400    1.9781 H       1  LIG1        0.1072
     27 N          -0.9991   10.3859    1.1937 N.1     1  LIG1       -0.1908
     28 C          -1.3008    9.3579    0.7824 C.1     1  LIG1        0.1014
     29 C          -3.6730    8.7553   -1.0166 C.ar    1  LIG1        0.0416
     30 C          -4.6128    9.3919   -0.2577 C.ar    1  LIG1        0.0375
     31 C          -5.4063   10.2837   -1.0637 C.ar    1  LIG1        0.0725
     32 C          -5.0460   10.2837   -2.3805 C.ar    1  LIG1       -0.0052
     33 S          -3.7470    9.2216   -2.6811 S.2     1  LIG1       -0.0937
     34 H          -5.4912   10.8649   -3.1723 H       1  LIG1        0.0707
     35 S          -4.8212    9.0920    1.4664 S.3     1  LIG1       -0.1403
     36 H          -5.8071    9.9824    1.6281 H       1  LIG1        0.1072
     37 N          -7.3229   11.6966   -0.0538 N.1     1  LIG1       -0.1908
     38 C          -6.4761   11.0809   -0.5247 C.1     1  LIG1        0.1008
@<TRIPOS>BOND
     1    34    32    1
     2    33    32   ar
     3    33    29   ar
     4    32    31   ar
     5     9    10    3
     6    18    19    3
     7    10     3    1
     8    19    13    1
     9    17    16    1
    10    31    38    1
    11    31    30   ar
    12    29    23    1
    13    29    30   ar
    14    24    23   ar
    15    24    20   ar
    16     8     7    1
    17    16    12    1
    18    23    22   ar
    19    38    37    3
    20    13    12   ar
    21    13    14   ar
    22    30    35    1
    23    12    11   ar
    24    20    14    1
    25    20    21   ar
    26    14    15   ar
    27     7     2    1
    28     3     2   ar
    29     3     4   ar
    30    22    21   ar
    31    22    28    1
    32    11    15   ar
    33    11     4    1
    34    21    25    1
    35    28    27    3
    36     2     1   ar
    37     4     5   ar
    38    35    36    1
    39    25    26    1
    40     1     5   ar
    41     1     6    1
