@<TRIPOS>MOLECULE
mol_data/opt/m06hf/geoms/mol2/5gd5gd-5gd5gd.out
 38 41 0 0 0
SMALL
GASTEIGER

@<TRIPOS>ATOM
      1 C          -1.6493   -2.1195    0.1282 C.ar    1  LIG1       -0.0093
      2 C          -0.3879   -1.9079   -0.3360 C.ar    1  LIG1        0.0298
      3 C          -0.0503   -0.5091   -0.2999 C.ar    1  LIG1        0.0802
      4 C          -1.0555    0.2815    0.1949 C.ar    1  LIG1        0.0454
      5 S          -2.4192   -0.6668    0.6283 S.2     1  LIG1       -0.0937
      6 H          -2.1666   -3.0625    0.2035 H       1  LIG1        0.0705
      7 S           0.6884   -3.2024   -0.8802 S.3     1  LIG1       -0.1408
      8 H           1.5981   -2.3881   -1.4266 H       1  LIG1        0.1072
      9 N           2.1999    0.3716   -1.2185 N.1     1  LIG1       -0.1908
     10 C           1.1960    0.0107   -0.7948 C.1     1  LIG1        0.1014
     11 C          -1.0226    1.7397    0.3608 C.ar    1  LIG1        0.0422
     12 C          -0.1567    2.4533    1.1423 C.ar    1  LIG1        0.0381
     13 C          -0.4103    3.8642    1.0364 C.ar    1  LIG1        0.0808
     14 C          -1.4455    4.1742    0.1927 C.ar    1  LIG1        0.0460
     15 S          -2.1280    2.7596   -0.4953 S.2     1  LIG1       -0.0847
     16 S           1.0419    1.7064    2.1982 S.3     1  LIG1       -0.1402
     17 H           1.6296    2.8583    2.5422 H       1  LIG1        0.1072
     18 N           0.9321    5.6189    2.3803 N.1     1  LIG1       -0.1908
     19 C           0.3258    4.8577    1.7716 C.1     1  LIG1        0.1014
     20 C          -1.9237    5.5233   -0.1384 C.ar    1  LIG1        0.0422
     21 C          -1.2383    6.4643   -0.8546 C.ar    1  LIG1        0.0381
     22 C          -1.9999    7.6783   -0.9724 C.ar    1  LIG1        0.0808
     23 C          -3.2176    7.6244   -0.3444 C.ar    1  LIG1        0.0460
     24 S          -3.4620    6.0989    0.4031 S.2     1  LIG1       -0.0847
     25 S           0.3419    6.1589   -1.5742 S.3     1  LIG1       -0.1402
     26 H           0.5120    7.4094   -2.0188 H       1  LIG1        0.1072
     27 N          -1.1275    9.6967   -2.3314 N.1     1  LIG1       -0.1908
     28 C          -1.5407    8.8195   -1.7169 C.1     1  LIG1        0.1014
     29 C          -4.2108    8.7023   -0.2606 C.ar    1  LIG1        0.0416
     30 C          -4.0314    9.9269    0.3185 C.ar    1  LIG1        0.0375
     31 C          -5.2205   10.7323    0.1956 C.ar    1  LIG1        0.0725
     32 C          -6.2382   10.0975   -0.4541 C.ar    1  LIG1       -0.0052
     33 S          -5.7961    8.5221   -0.9336 S.2     1  LIG1       -0.0937
     34 H          -7.2177   10.4949   -0.6666 H       1  LIG1        0.0707
     35 S          -2.5647   10.3889    1.1802 S.3     1  LIG1       -0.1403
     36 H          -2.8673   11.6912    1.2374 H       1  LIG1        0.1072
     37 N          -5.3354   13.1381    1.1379 N.1     1  LIG1       -0.1908
     38 C          -5.3109   12.0721    0.7129 C.1     1  LIG1        0.1008
@<TRIPOS>BOND
     1    27    28    3
     2    26    25    1
     3    28    22    1
     4    25    21    1
     5     8     7    1
     6     9    10    3
     7    22    21   ar
     8    22    23   ar
     9    33    32   ar
    10    33    29   ar
    11     7     2    1
    12    21    20   ar
    13    10     3    1
    14    34    32    1
    15    15    14   ar
    16    15    11   ar
    17    32    31   ar
    18    23    29    1
    19    23    24   ar
    20     2     3   ar
    21     2     1   ar
    22     3     4   ar
    23    29    30   ar
    24    20    14    1
    25    20    24   ar
    26     1     6    1
    27     1     5   ar
    28    14    13   ar
    29     4    11    1
    30     4     5   ar
    31    31    30   ar
    32    31    38    1
    33    30    35    1
    34    11    12   ar
    35    38    37    3
    36    13    12   ar
    37    13    19    1
    38    12    16    1
    39    35    36    1
    40    19    18    3
    41    16    17    1
