@<TRIPOS>MOLECULE
mol_data/opt/m06hf/geoms/mol2/5gd5gd-5gd.out
 29 31 0 0 0
SMALL
GASTEIGER

@<TRIPOS>ATOM
      1 C          -1.4904   -1.6791    1.6082 C.ar    1  LIG1       -0.0093
      2 C          -0.7589   -1.8247    0.4697 C.ar    1  LIG1        0.0298
      3 C          -0.3939   -0.5469   -0.0819 C.ar    1  LIG1        0.0802
      4 C          -0.8527    0.5133    0.6555 C.ar    1  LIG1        0.0454
      5 S          -1.7149   -0.0304    2.0381 S.2     1  LIG1       -0.0937
      6 H          -1.9082   -2.4646    2.2171 H       1  LIG1        0.0705
      7 S          -0.2776   -3.3988   -0.1805 S.3     1  LIG1       -0.1408
      8 H          -0.1732   -2.9961   -1.4526 H       1  LIG1        0.1072
      9 N           0.8894   -0.3189   -2.3149 N.1     1  LIG1       -0.1908
     10 C           0.3277   -0.3968   -1.3171 C.1     1  LIG1        0.1014
     11 C          -0.6652    1.9398    0.3609 C.ar    1  LIG1        0.0422
     12 C           0.5214    2.6144    0.2908 C.ar    1  LIG1        0.0381
     13 C           0.3112    3.9958   -0.0509 C.ar    1  LIG1        0.0808
     14 C          -1.0089    4.3277   -0.2107 C.ar    1  LIG1        0.0460
     15 S          -2.0228    2.9668    0.0447 S.2     1  LIG1       -0.0847
     16 S           2.0809    1.8760    0.6525 S.3     1  LIG1       -0.1402
     17 H           2.8057    2.8924    0.1694 H       1  LIG1        0.1072
     18 N           2.2813    5.6370   -0.3774 N.1     1  LIG1       -0.1908
     19 C           1.3875    4.9317   -0.2337 C.1     1  LIG1        0.1014
     20 C          -1.5479    5.6538   -0.5394 C.ar    1  LIG1        0.0416
     21 C          -1.4456    6.7842    0.2200 C.ar    1  LIG1        0.0375
     22 C          -2.0807    7.9014   -0.4311 C.ar    1  LIG1        0.0725
     23 C          -2.6344    7.5794   -1.6362 C.ar    1  LIG1       -0.0052
     24 S          -2.4074    5.9332   -2.0161 S.2     1  LIG1       -0.0937
     25 H          -3.1581    8.2435   -2.3051 H       1  LIG1        0.0707
     26 S          -0.7144    6.8094    1.8246 S.3     1  LIG1       -0.1403
     27 H          -0.5938    8.1400    1.8819 H       1  LIG1        0.1072
     28 N          -2.1255   10.2618    0.6256 N.1     1  LIG1       -0.1908
     29 C          -2.1196    9.2218    0.1401 C.1     1  LIG1        0.1008
@<TRIPOS>BOND
     1     9    10    3
     2    25    23    1
     3    24    23   ar
     4    24    20   ar
     5    23    22   ar
     6     8     7    1
     7    10     3    1
     8    20    14    1
     9    20    21   ar
    10    22    29    1
    11    22    21   ar
    12    18    19    3
    13    19    13    1
    14    14    13   ar
    15    14    15   ar
    16     7     2    1
    17     3     2   ar
    18     3     4   ar
    19    13    12   ar
    20    15    11   ar
    21    29    28    3
    22    17    16    1
    23    21    26    1
    24    12    11   ar
    25    12    16    1
    26    11     4    1
    27     2     1   ar
    28     4     5   ar
    29     1     5   ar
    30     1     6    1
    31    26    27    1
