@<TRIPOS>MOLECULE
mol_data/opt/m06hf/geoms/mol2/5gd5gd.out
 20 21 0 0 0
SMALL
GASTEIGER

@<TRIPOS>ATOM
      1 C          -1.9348   -1.7051    0.8511 C.ar    1  LIG1       -0.0093
      2 C          -0.7557   -1.8070    0.1796 C.ar    1  LIG1        0.0298
      3 C          -0.2853   -0.5136   -0.2405 C.ar    1  LIG1        0.0802
      4 C          -1.1142    0.5148    0.1274 C.ar    1  LIG1        0.0454
      5 S          -2.4696   -0.0770    0.9962 S.2     1  LIG1       -0.0937
      6 H          -2.5178   -2.5090    1.2706 H       1  LIG1        0.0705
      7 S           0.0597   -3.3461   -0.1305 S.3     1  LIG1       -0.1408
      8 H           1.0626   -2.8202   -0.8428 H       1  LIG1        0.1072
      9 N           1.8797   -0.2271   -1.6255 N.1     1  LIG1       -0.1908
     10 C           0.9164   -0.3241   -1.0083 C.1     1  LIG1        0.1014
     11 C          -0.9094    1.9459   -0.1280 C.ar    1  LIG1        0.0416
     12 C           0.1091    2.7186    0.3520 C.ar    1  LIG1        0.0375
     13 C          -0.0101    4.0767   -0.1144 C.ar    1  LIG1        0.0725
     14 C          -1.0984    4.2805   -0.9122 C.ar    1  LIG1       -0.0052
     15 S          -1.9959    2.8476   -1.1309 S.2     1  LIG1       -0.0937
     16 H          -1.3969    5.2079   -1.3735 H       1  LIG1        0.0707
     17 S           1.3695    2.1073    1.4235 S.3     1  LIG1       -0.1403
     18 H           1.9287    3.3042    1.6298 H       1  LIG1        0.1072
     19 N           1.6711    5.9186    0.5727 N.1     1  LIG1       -0.1908
     20 C           0.9167    5.1155    0.2506 C.1     1  LIG1        0.1008
@<TRIPOS>BOND
     1     9    10    3
     2    16    14    1
     3    15    14   ar
     4    15    11   ar
     5    10     3    1
     6    14    13   ar
     7     8     7    1
     8     3     4   ar
     9     3     2   ar
    10     7     2    1
    11    11     4    1
    12    11    12   ar
    13    13    20    1
    14    13    12   ar
    15     4     5   ar
    16     2     1   ar
    17    20    19    3
    18    12    17    1
    19     1     5   ar
    20     1     6    1
    21    17    18    1
