@<TRIPOS>MOLECULE
mol_data/opt/m06hf/geoms/mol2/5gd5gd-5gd-5gd.out
 38 41 0 0 0
SMALL
GASTEIGER

@<TRIPOS>ATOM
      1 C          -1.9655   -1.8616    0.6435 C.ar    1  LIG1       -0.0093
      2 C          -0.6771   -1.7205    1.0560 C.ar    1  LIG1        0.0298
      3 C          -0.1928   -0.3861    0.8184 C.ar    1  LIG1        0.0802
      4 C          -1.1260    0.4308    0.2366 C.ar    1  LIG1        0.0454
      5 S          -2.5947   -0.4193   -0.0462 S.2     1  LIG1       -0.0937
      6 H          -2.5748   -2.7483    0.7167 H       1  LIG1        0.0705
      7 S           0.2920   -3.0539    1.7077 S.3     1  LIG1       -0.1408
      8 H           0.6732   -2.4198    2.8234 H       1  LIG1        0.1072
      9 N           2.1530    0.4123    1.5601 N.1     1  LIG1       -0.1908
     10 C           1.1145    0.0666    1.2160 C.1     1  LIG1        0.1014
     11 C          -0.9587    1.8362   -0.1528 C.ar    1  LIG1        0.0422
     12 C          -0.0645    2.3295   -1.0633 C.ar    1  LIG1        0.0381
     13 C          -0.2033    3.7543   -1.2001 C.ar    1  LIG1        0.0808
     14 C          -1.1839    4.2891   -0.4048 C.ar    1  LIG1        0.0460
     15 S          -1.9426    3.0776    0.5417 S.2     1  LIG1       -0.0847
     16 S           1.0599    1.3165   -1.9651 S.3     1  LIG1       -0.1402
     17 H           1.4765    2.2927   -2.7801 H       1  LIG1        0.1072
     18 N           1.1933    5.1362   -2.8818 N.1     1  LIG1       -0.1908
     19 C           0.5686    4.5412   -2.1245 C.1     1  LIG1        0.1014
     20 C          -1.5667    5.7050   -0.3176 C.ar    1  LIG1        0.0422
     21 C          -0.7985    6.7230    0.1756 C.ar    1  LIG1        0.0381
     22 C          -1.4933    7.9783    0.0831 C.ar    1  LIG1        0.0808
     23 C          -2.7461    7.8741   -0.4615 C.ar    1  LIG1        0.0460
     24 S          -3.1080    6.2516   -0.8781 S.2     1  LIG1       -0.0847
     25 S           0.8082    6.4814    0.8591 S.3     1  LIG1       -0.1402
     26 H           1.0089    7.7731    1.1461 H       1  LIG1        0.1072
     27 N          -0.4377   10.2004    0.8784 N.1     1  LIG1       -0.1908
     28 C          -0.9319    9.2285    0.5199 C.1     1  LIG1        0.1014
     29 C          -3.7069    8.9697   -0.6647 C.ar    1  LIG1        0.0416
     30 C          -4.5434    9.4891    0.2800 C.ar    1  LIG1        0.0375
     31 C          -5.3303   10.5659   -0.2646 C.ar    1  LIG1        0.0725
     32 C          -5.0590   10.8182   -1.5787 C.ar    1  LIG1       -0.0052
     33 S          -3.8588    9.7725   -2.1883 S.2     1  LIG1       -0.0937
     34 H          -5.5138   11.5746   -2.1983 H       1  LIG1        0.0707
     35 S          -4.6261    8.8768    1.9311 S.3     1  LIG1       -0.1403
     36 H          -5.4922    9.8034    2.3588 H       1  LIG1        0.1072
     37 N          -7.0745   11.8332    1.1640 N.1     1  LIG1       -0.1908
     38 C          -6.3046   11.2888    0.5092 C.1     1  LIG1        0.1008
@<TRIPOS>BOND
     1    18    19    3
     2    17    16    1
     3    34    32    1
     4    33    32   ar
     5    33    29   ar
     6    19    13    1
     7    16    12    1
     8    32    31   ar
     9    13    12   ar
    10    13    14   ar
    11    12    11   ar
    12    24    23   ar
    13    24    20   ar
    14    29    23    1
    15    29    30   ar
    16    23    22   ar
    17    14    20    1
    18    14    15   ar
    19    20    21   ar
    20    31    30   ar
    21    31    38    1
    22    11     4    1
    23    11    15   ar
    24     5     4   ar
    25     5     1   ar
    26    22    21   ar
    27    22    28    1
    28    21    25    1
    29     4     3   ar
    30    30    35    1
    31    38    37    3
    32    28    27    3
    33     1     6    1
    34     1     2   ar
    35     3     2   ar
    36     3    10    1
    37    25    26    1
    38     2     7    1
    39    10     9    3
    40     7     8    1
    41    35    36    1
