@<TRIPOS>MOLECULE
mol_data/opt/m06hf/geoms/mol2/5gd5gd5gd.out
 29 31 0 0 0
SMALL
GASTEIGER

@<TRIPOS>ATOM
      1 C          -1.7642   -1.9329    0.4655 C.ar    1  LIG1       -0.0093
      2 C          -0.7069   -1.7824   -0.3785 C.ar    1  LIG1        0.0298
      3 C          -0.2965   -0.4047   -0.4543 C.ar    1  LIG1        0.0802
      4 C          -1.0463    0.4313    0.3320 C.ar    1  LIG1        0.0454
      5 S          -2.2511   -0.4471    1.1808 S.2     1  LIG1       -0.0937
      6 H          -2.2841   -2.8473    0.7022 H       1  LIG1        0.0705
      7 S           0.0588   -3.1252   -1.2375 S.3     1  LIG1       -0.1408
      8 H           0.7757   -2.3533   -2.0603 H       1  LIG1        0.1072
      9 N           1.6015    0.3617   -2.0332 N.1     1  LIG1       -0.1908
     10 C           0.7597    0.0524   -1.3168 C.1     1  LIG1        0.1014
     11 C          -0.8804    1.8819    0.4816 C.ar    1  LIG1        0.0422
     12 C           0.2224    2.5292    0.9666 C.ar    1  LIG1        0.0381
     13 C           0.0281    3.9535    0.9565 C.ar    1  LIG1        0.0808
     14 C          -1.1969    4.3379    0.4762 C.ar    1  LIG1        0.0460
     15 S          -2.1319    2.9791    0.0098 S.2     1  LIG1       -0.0847
     16 S           1.6492    1.6912    1.5766 S.3     1  LIG1       -0.1402
     17 H           2.2930    2.8110    1.9287 H       1  LIG1        0.1072
     18 N           1.8025    5.6039    1.8593 N.1     1  LIG1       -0.1908
     19 C           1.0033    4.8903    1.4476 C.1     1  LIG1        0.1014
     20 C          -1.6839    5.7164    0.3289 C.ar    1  LIG1        0.0416
     21 C          -1.2309    6.6379   -0.5711 C.ar    1  LIG1        0.0375
     22 C          -1.9209    7.8928   -0.4127 C.ar    1  LIG1        0.0725
     23 C          -2.8551    7.8728    0.5822 C.ar    1  LIG1       -0.0052
     24 S          -2.9257    6.3534    1.3516 S.2     1  LIG1       -0.0937
     25 H          -3.4921    8.6881    0.8862 H       1  LIG1        0.0707
     26 S           0.0001    6.2786   -1.7798 S.3     1  LIG1       -0.1403
     27 H           0.0433    7.5215   -2.2758 H       1  LIG1        0.1072
     28 N          -1.4065    9.9323   -1.9179 N.1     1  LIG1       -0.1908
     29 C          -1.6510    9.0422   -1.2353 C.1     1  LIG1        0.1008
@<TRIPOS>BOND
     1    27    26    1
     2     8     7    1
     3     9    10    3
     4    28    29    3
     5    26    21    1
     6    10     3    1
     7     7     2    1
     8    29    22    1
     9    21    22   ar
    10    21    20   ar
    11     3     2   ar
    12     3     4   ar
    13    22    23   ar
    14     2     1   ar
    15    15    14   ar
    16    15    11   ar
    17    20    14    1
    18    20    24   ar
    19     4    11    1
    20     4     5   ar
    21     1     6    1
    22     1     5   ar
    23    14    13   ar
    24    11    12   ar
    25    23    25    1
    26    23    24   ar
    27    13    12   ar
    28    13    19    1
    29    12    16    1
    30    19    18    3
    31    16    17    1
