@<TRIPOS>MOLECULE
mol_data/opt/m06hf/geoms/mol2/5ge.out
 12 12 0 0 0
SMALL
GASTEIGER

@<TRIPOS>ATOM
      1 C          -2.1421   -1.6791    0.0002 C.ar    1  LIG1       -0.0099
      2 C          -0.7841   -1.6764   -0.0003 C.ar    1  LIG1        0.0272
      3 C          -0.2487   -0.3313   -0.0003 C.ar    1  LIG1        0.0448
      4 C          -1.2319    0.6155    0.0003 C.ar    1  LIG1       -0.0078
      5 S          -2.7922   -0.0836    0.0008 S.2     1  LIG1       -0.1027
      6 H          -2.7976   -2.5345    0.0003 H       1  LIG1        0.0705
      7 H          -1.0976    1.6846    0.0005 H       1  LIG1        0.0706
      8 S           0.2059   -3.1437   -0.0010 S.3     1  LIG1       -0.1409
      9 H           1.3714   -2.4891   -0.0013 H       1  LIG1        0.1072
     10 C           1.1563   -0.0359   -0.0008 C.1     1  LIG1       -0.0680
     11 C           2.3394    0.1786   -0.0012 C.1     1  LIG1       -0.1139
     12 H           3.3853    0.3814   -0.0014 H       1  LIG1        0.1232
@<TRIPOS>BOND
     1    12    11    1
     2     9     8    1
     3    11    10    3
     4     8     2    1
     5    10     3    1
     6     2     3   ar
     7     2     1   ar
     8     3     4   ar
     9     1     6    1
    10     1     5   ar
    11     4     7    1
    12     4     5   ar
