@<TRIPOS>MOLECULE
mol_data/opt/m06hf/geoms/mol2/5ge5ge5ge5ge.out
 42 45 0 0 0
SMALL
GASTEIGER

@<TRIPOS>ATOM
      1 C          -1.9930   -1.8730    0.3955 C.ar    1  LIG1       -0.0093
      2 C          -0.7538   -1.8790   -0.1614 C.ar    1  LIG1        0.0278
      3 C          -0.1989   -0.5484   -0.2546 C.ar    1  LIG1        0.0531
      4 C          -1.0413    0.4085    0.2497 C.ar    1  LIG1        0.0434
      5 S          -2.5059   -0.2887    0.8299 S.2     1  LIG1       -0.0937
      6 H          -2.6341   -2.7205    0.5773 H       1  LIG1        0.0705
      7 S           0.0614   -3.3424   -0.7284 S.3     1  LIG1       -0.1409
      8 H           1.1734   -2.7043   -1.1107 H       1  LIG1        0.1072
      9 C           1.0739   -0.2542   -0.8443 C.1     1  LIG1       -0.0674
     10 C           2.1443   -0.0241   -1.3431 C.1     1  LIG1       -0.1138
     11 H           3.0908    0.2048   -1.7771 H       1  LIG1        0.1232
     12 C          -0.8074    1.8529    0.3211 C.ar    1  LIG1        0.0421
     13 C           0.2546    2.5137    0.8714 C.ar    1  LIG1        0.0361
     14 C           0.1007    3.9476    0.7893 C.ar    1  LIG1        0.0537
     15 C          -1.0662    4.3223    0.1742 C.ar    1  LIG1        0.0440
     16 S          -1.9787    2.9492   -0.3324 S.2     1  LIG1       -0.0848
     17 S           1.6494    1.7169    1.6069 S.3     1  LIG1       -0.1403
     18 H           1.7691    2.6125    2.5960 H       1  LIG1        0.1072
     19 C           1.0265    4.8781    1.3643 C.1     1  LIG1       -0.0674
     20 C           1.7994    5.6550    1.8590 C.1     1  LIG1       -0.1138
     21 H           2.4771    6.3592    2.2840 H       1  LIG1        0.1232
     22 C          -1.5514    5.6794   -0.0805 C.ar    1  LIG1        0.0421
     23 C          -0.8914    6.7261   -0.6629 C.ar    1  LIG1        0.0361
     24 C          -1.7367    7.8903   -0.7932 C.ar    1  LIG1        0.0537
     25 C          -3.0040    7.6859   -0.3137 C.ar    1  LIG1        0.0440
     26 S          -3.1835    6.1003    0.3348 S.2     1  LIG1       -0.0848
     27 S           0.7794    6.6729   -1.2380 S.3     1  LIG1       -0.1403
     28 H           0.5280    7.4574   -2.2947 H       1  LIG1        0.1072
     29 C          -1.3212    9.1059   -1.4286 C.1     1  LIG1       -0.0674
     30 C          -0.9677   10.1194   -1.9700 C.1     1  LIG1       -0.1138
     31 H          -0.6669   11.0287   -2.4375 H       1  LIG1        0.1232
     32 C          -4.1192    8.6360   -0.3061 C.ar    1  LIG1        0.0415
     33 C          -4.1476    9.9098    0.1878 C.ar    1  LIG1        0.0355
     34 C          -5.4503   10.5184    0.0308 C.ar    1  LIG1        0.0454
     35 C          -6.3497    9.6796   -0.5598 C.ar    1  LIG1       -0.0072
     36 S          -5.6544    8.1704   -0.9644 S.2     1  LIG1       -0.0937
     37 H          -7.3829    9.8931   -0.7797 H       1  LIG1        0.0706
     38 S          -2.7672   10.7255    0.9342 S.3     1  LIG1       -0.1403
     39 H          -3.5054   11.2963    1.8953 H       1  LIG1        0.1072
     40 C          -5.7649   11.8462    0.4781 C.1     1  LIG1       -0.0680
     41 C          -6.0145   12.9559    0.8657 C.1     1  LIG1       -0.1139
     42 H          -6.2384   13.9416    1.2023 H       1  LIG1        0.1232
@<TRIPOS>BOND
     1    31    30    1
     2    28    27    1
     3    30    29    3
     4    11    10    1
     5    29    24    1
     6    10     9    3
     7    27    23    1
     8     8     7    1
     9    36    35   ar
    10    36    32   ar
    11     9     3    1
    12    24    23   ar
    13    24    25   ar
    14    37    35    1
    15     7     2    1
    16    23    22   ar
    17    35    34   ar
    18    16    15   ar
    19    16    12   ar
    20    25    32    1
    21    25    26   ar
    22    32    33   ar
    23     3     2   ar
    24     3     4   ar
    25     2     1   ar
    26    22    15    1
    27    22    26   ar
    28    34    33   ar
    29    34    40    1
    30    15    14   ar
    31    33    38    1
    32     4    12    1
    33     4     5   ar
    34    12    13   ar
    35     1     6    1
    36     1     5   ar
    37    40    41    3
    38    14    13   ar
    39    14    19    1
    40    41    42    1
    41    13    17    1
    42    38    39    1
    43    19    20    3
    44    17    18    1
    45    20    21    1
