@<TRIPOS>MOLECULE
mol_data/opt/m06hf/geoms/mol2/5ge5ge-5ge.out
 32 34 0 0 0
SMALL
GASTEIGER

@<TRIPOS>ATOM
      1 C          -1.7882   -1.5929    1.5864 C.ar    1  LIG1       -0.0093
      2 C          -0.8174   -1.8040    0.6595 C.ar    1  LIG1        0.0278
      3 C          -0.3205   -0.5644    0.1094 C.ar    1  LIG1        0.0531
      4 C          -0.9323    0.5352    0.6550 C.ar    1  LIG1        0.0434
      5 S          -2.1057    0.0804    1.8293 S.2     1  LIG1       -0.0937
      6 H          -2.3351   -2.3370    2.1423 H       1  LIG1        0.0705
      7 S          -0.2378   -3.4080    0.1900 S.3     1  LIG1       -0.1409
      8 H           0.5540   -2.9517   -0.7872 H       1  LIG1        0.1072
      9 C           0.6713   -0.4909   -0.9222 C.1     1  LIG1       -0.0674
     10 C           1.5063   -0.4478   -1.7868 C.1     1  LIG1       -0.1138
     11 H           2.2496   -0.3852   -2.5481 H       1  LIG1        0.1232
     12 C          -0.6664    1.9417    0.3410 C.ar    1  LIG1        0.0421
     13 C           0.5336    2.5960    0.3542 C.ar    1  LIG1        0.0361
     14 C           0.3944    3.9881   -0.0019 C.ar    1  LIG1        0.0537
     15 C          -0.9052    4.3468   -0.2472 C.ar    1  LIG1        0.0440
     16 S          -1.9711    3.0024   -0.0846 S.2     1  LIG1       -0.0848
     17 S           2.0836    1.8402    0.7431 S.3     1  LIG1       -0.1403
     18 H           2.5248    2.8860    1.4541 H       1  LIG1        0.1072
     19 C           1.4980    4.8979   -0.0959 C.1     1  LIG1       -0.0674
     20 C           2.4279    5.6568   -0.1643 C.1     1  LIG1       -0.1138
     21 H           3.2447    6.3380   -0.2315 H       1  LIG1        0.1232
     22 C          -1.4022    5.6743   -0.6196 C.ar    1  LIG1        0.0415
     23 C          -1.2072    6.8606    0.0292 C.ar    1  LIG1        0.0355
     24 C          -1.8713    7.9566   -0.6409 C.ar    1  LIG1        0.0454
     25 C          -2.5449    7.5538   -1.7568 C.ar    1  LIG1       -0.0072
     26 S          -2.3767    5.8748   -2.0396 S.2     1  LIG1       -0.0937
     27 H          -3.1219    8.1760   -2.4210 H       1  LIG1        0.0706
     28 S          -0.2644    7.0484    1.5145 S.3     1  LIG1       -0.1403
     29 H          -1.1347    7.9042    2.0648 H       1  LIG1        0.1072
     30 C          -1.8497    9.3102   -0.1606 C.1     1  LIG1       -0.0680
     31 C          -1.8288   10.4357    0.2610 C.1     1  LIG1       -0.1139
     32 H          -1.8067   11.4364    0.6270 H       1  LIG1        0.1232
@<TRIPOS>BOND
     1    11    10    1
     2    27    25    1
     3    26    25   ar
     4    26    22   ar
     5    10     9    3
     6    25    24   ar
     7     9     3    1
     8     8     7    1
     9    24    30    1
    10    24    23   ar
    11    22    15    1
    12    22    23   ar
    13    15    16   ar
    14    15    14   ar
    15    21    20    1
    16    20    19    3
    17    30    31    3
    18    19    14    1
    19    16    12   ar
    20    14    13   ar
    21    23    28    1
    22     3     4   ar
    23     3     2   ar
    24     7     2    1
    25    31    32    1
    26    12    13   ar
    27    12     4    1
    28    13    17    1
    29     4     5   ar
    30     2     1   ar
    31    17    18    1
    32    28    29    1
    33     1     5   ar
    34     1     6    1
