@<TRIPOS>MOLECULE
mol_data/opt/m06hf/geoms/mol2/5ge5ge-5ge5ge.out
 42 45 0 0 0
SMALL
GASTEIGER

@<TRIPOS>ATOM
      1 C          -1.3367   -1.3974    2.3587 C.ar    1  LIG1       -0.0093
      2 C          -0.8797   -1.6898    1.1140 C.ar    1  LIG1        0.0278
      3 C          -0.5564   -0.5016    0.3600 C.ar    1  LIG1        0.0531
      4 C          -0.7709    0.6463    1.0783 C.ar    1  LIG1        0.0434
      5 S          -1.3849    0.2962    2.6531 S.2     1  LIG1       -0.0937
      6 H          -1.6385   -2.0973    3.1209 H       1  LIG1        0.0705
      7 S          -0.8087   -3.3382    0.4698 S.3     1  LIG1       -0.1409
      8 H           0.4076   -3.2200   -0.0771 H       1  LIG1        0.1072
      9 C          -0.0829   -0.5196   -0.9927 C.1     1  LIG1       -0.0674
     10 C           0.3258   -0.5430   -2.1229 C.1     1  LIG1       -0.1138
     11 H           0.6922   -0.5471   -3.1237 H       1  LIG1        0.1232
     12 C          -0.5361    2.0255    0.6428 C.ar    1  LIG1        0.0421
     13 C           0.6122    2.5674    0.1375 C.ar    1  LIG1        0.0361
     14 C           0.4601    3.9718   -0.1609 C.ar    1  LIG1        0.0537
     15 C          -0.7865    4.4491    0.1507 C.ar    1  LIG1        0.0440
     16 S          -1.8013    3.2041    0.7715 S.2     1  LIG1       -0.0848
     17 S           2.1066    1.6670   -0.1333 S.3     1  LIG1       -0.1403
     18 H           2.9009    2.7019    0.1719 H       1  LIG1        0.1072
     19 C           1.4986    4.7816   -0.7271 C.1     1  LIG1       -0.0674
     20 C           2.3779    5.4574   -1.1920 C.1     1  LIG1       -0.1138
     21 H           3.1463    6.0695   -1.6055 H       1  LIG1        0.1232
     22 C          -1.2734    5.8233    0.0026 C.ar    1  LIG1        0.0421
     23 C          -0.7165    6.9714    0.4913 C.ar    1  LIG1        0.0361
     24 C          -1.5018    8.1361    0.1582 C.ar    1  LIG1        0.0537
     25 C          -2.6350    7.8275   -0.5489 C.ar    1  LIG1        0.0440
     26 S          -2.7485    6.1365   -0.8517 S.2     1  LIG1       -0.0848
     27 S           0.7905    7.0389    1.4127 S.3     1  LIG1       -0.1403
     28 H           0.3425    7.9689    2.2651 H       1  LIG1        0.1072
     29 C          -1.1360    9.4727    0.5238 C.1     1  LIG1       -0.0674
     30 C          -0.8314   10.5902    0.8454 C.1     1  LIG1       -0.1138
     31 H          -0.5756   11.5865    1.1240 H       1  LIG1        0.1232
     32 C          -3.6700    8.7529   -1.0187 C.ar    1  LIG1        0.0415
     33 C          -4.3881    9.6552   -0.2848 C.ar    1  LIG1        0.0355
     34 C          -5.3524   10.3633   -1.0975 C.ar    1  LIG1        0.0454
     35 C          -5.3291    9.9618   -2.4013 C.ar    1  LIG1       -0.0072
     36 S          -4.1445    8.7622   -2.6862 S.2     1  LIG1       -0.0937
     37 H          -5.9518   10.3310   -3.1997 H       1  LIG1        0.0706
     38 S          -4.1729    9.9329    1.4467 S.3     1  LIG1       -0.1403
     39 H          -5.4810   10.1038    1.6797 H       1  LIG1        0.1072
     40 C          -6.2548   11.3529   -0.5793 C.1     1  LIG1       -0.0680
     41 C          -7.0107   12.1707   -0.1284 C.1     1  LIG1       -0.1139
     42 H          -7.6798   12.9017    0.2630 H       1  LIG1        0.1232
@<TRIPOS>BOND
     1    37    35    1
     2    11    10    1
     3    36    35   ar
     4    36    32   ar
     5    35    34   ar
     6    10     9    3
     7    21    20    1
     8    20    19    3
     9    34    40    1
    10    34    33   ar
    11    32    25    1
    12    32    33   ar
    13     9     3    1
    14    26    25   ar
    15    26    22   ar
    16    19    14    1
    17    40    41    3
    18    25    24   ar
    19    33    38    1
    20    14    13   ar
    21    14    15   ar
    22    17    13    1
    23    17    18    1
    24    41    42    1
    25     8     7    1
    26    22    15    1
    27    22    23   ar
    28    13    12   ar
    29    15    16   ar
    30    24    23   ar
    31    24    29    1
    32     3     4   ar
    33     3     2   ar
    34     7     2    1
    35    23    27    1
    36    29    30    3
    37    12    16   ar
    38    12     4    1
    39    30    31    1
    40     4     5   ar
    41     2     1   ar
    42    27    28    1
    43    38    39    1
    44     1     5   ar
    45     1     6    1
