@<TRIPOS>MOLECULE
mol_data/opt/m06hf/geoms/mol2/5ge5ge5ge5ge-.out
 42 45 0 0 0
SMALL
GASTEIGER

@<TRIPOS>ATOM
      1 C          -1.9574   -1.8712    0.4546 C.ar    1  LIG1       -0.0093
      2 C          -0.7281   -1.8767   -0.1238 C.ar    1  LIG1        0.0278
      3 C          -0.1803   -0.5448   -0.2371 C.ar    1  LIG1        0.0531
      4 C          -1.0175    0.4128    0.2743 C.ar    1  LIG1        0.0434
      5 S          -2.4691   -0.2855    0.8853 S.2     1  LIG1       -0.0937
      6 H          -2.5918   -2.7196    0.6542 H       1  LIG1        0.0705
      7 S           0.0830   -3.3415   -0.6934 S.3     1  LIG1       -0.1409
      8 H           1.1856   -2.7021   -1.1001 H       1  LIG1        0.1072
      9 C           1.0809   -0.2503   -0.8512 C.1     1  LIG1       -0.0674
     10 C           2.1415   -0.0201   -1.3703 C.1     1  LIG1       -0.1138
     11 H           3.0794    0.2090   -1.8225 H       1  LIG1        0.1232
     12 C          -0.7883    1.8586    0.3304 C.ar    1  LIG1        0.0421
     13 C           0.2805    2.5278    0.8571 C.ar    1  LIG1        0.0361
     14 C           0.1194    3.9604    0.7664 C.ar    1  LIG1        0.0537
     15 C          -1.0594    4.3257    0.1686 C.ar    1  LIG1        0.0440
     16 S          -1.9751    2.9451   -0.3114 S.2     1  LIG1       -0.0848
     17 S           1.6908    1.7423    1.5747 S.3     1  LIG1       -0.1403
     18 H           1.8239    2.6461    2.5546 H       1  LIG1        0.1072
     19 C           1.0511    4.8990    1.3181 C.1     1  LIG1       -0.0674
     20 C           1.8293    5.6827    1.7935 C.1     1  LIG1       -0.1138
     21 H           2.5114    6.3929    2.2012 H       1  LIG1        0.1232
     22 C          -1.5543    5.6789   -0.0885 C.ar    1  LIG1        0.0421
     23 C          -0.9085    6.7234   -0.6903 C.ar    1  LIG1        0.0361
     24 C          -1.7606    7.8833   -0.8153 C.ar    1  LIG1        0.0537
     25 C          -3.0187    7.6778   -0.3127 C.ar    1  LIG1        0.0440
     26 S          -3.1808    6.0967    0.3512 S.2     1  LIG1       -0.0848
     27 S           0.7524    6.6721   -1.2935 S.3     1  LIG1       -0.1403
     28 H           0.4799    7.4474   -2.3518 H       1  LIG1        0.1072
     29 C          -1.3608    9.0954   -1.4673 C.1     1  LIG1       -0.0674
     30 C          -1.0205   10.1060   -2.0224 C.1     1  LIG1       -0.1138
     31 H          -0.7314   11.0127   -2.5020 H       1  LIG1        0.1232
     32 C          -4.1373    8.6236   -0.2935 C.ar    1  LIG1        0.0415
     33 C          -4.1623    9.9013    0.1906 C.ar    1  LIG1        0.0355
     34 C          -5.4700   10.5036    0.0511 C.ar    1  LIG1        0.0454
     35 C          -6.3760    9.6566   -0.5172 C.ar    1  LIG1       -0.0072
     36 S          -5.6816    8.1469   -0.9218 S.2     1  LIG1       -0.0937
     37 H          -7.4137    9.8644   -0.7211 H       1  LIG1        0.0706
     38 S          -2.7726   10.7282    0.9067 S.3     1  LIG1       -0.1403
     39 H          -3.4965   11.3039    1.8758 H       1  LIG1        0.1072
     40 C          -5.7821   11.8337    0.4931 C.1     1  LIG1       -0.0680
     41 C          -6.0295   12.9455    0.8760 C.1     1  LIG1       -0.1139
     42 H          -6.2517   13.9331    1.2085 H       1  LIG1        0.1232
@<TRIPOS>BOND
     1    31    30    1
     2    28    27    1
     3    30    29    3
     4    11    10    1
     5    29    24    1
     6    10     9    3
     7    27    23    1
     8     8     7    1
     9    36    35   ar
    10    36    32   ar
    11     9     3    1
    12    24    23   ar
    13    24    25   ar
    14    37    35    1
    15     7     2    1
    16    23    22   ar
    17    35    34   ar
    18    25    32    1
    19    25    26   ar
    20    16    15   ar
    21    16    12   ar
    22    32    33   ar
    23     3     2   ar
    24     3     4   ar
    25     2     1   ar
    26    22    15    1
    27    22    26   ar
    28    34    33   ar
    29    34    40    1
    30    15    14   ar
    31    33    38    1
    32     4    12    1
    33     4     5   ar
    34    12    13   ar
    35     1     6    1
    36     1     5   ar
    37    40    41    3
    38    14    13   ar
    39    14    19    1
    40    13    17    1
    41    41    42    1
    42    38    39    1
    43    19    20    3
    44    17    18    1
    45    20    21    1
