@<TRIPOS>MOLECULE
mol_data/opt/m06hf/geoms/mol2/5ge5ge5ge-5ge-.out
 42 45 0 0 0
SMALL
GASTEIGER

@<TRIPOS>ATOM
      1 C          -0.9584   -1.7158    1.9296 C.ar    1  LIG1       -0.0093
      2 C          -0.6228   -1.8338    0.6185 C.ar    1  LIG1        0.0278
      3 C          -0.4329   -0.5493   -0.0120 C.ar    1  LIG1        0.0531
      4 C          -0.6222    0.4920    0.8591 C.ar    1  LIG1        0.0434
      5 S          -1.0513   -0.0736    2.4317 S.2     1  LIG1       -0.0937
      6 H          -1.1459   -2.5165    2.6268 H       1  LIG1        0.0705
      7 S          -0.5464   -3.3914   -0.2220 S.3     1  LIG1       -0.1409
      8 H           0.5723   -3.1255   -0.9042 H       1  LIG1        0.1072
      9 C          -0.1006   -0.3764   -1.3953 C.1     1  LIG1       -0.0674
     10 C           0.1882   -0.2327   -2.5531 C.1     1  LIG1       -0.1138
     11 H           0.4438   -0.0862   -3.5771 H       1  LIG1        0.1232
     12 C          -0.5003    1.9243    0.5742 C.ar    1  LIG1        0.0421
     13 C           0.5712    2.5927    0.0527 C.ar    1  LIG1        0.0361
     14 C           0.3184    4.0087   -0.0673 C.ar    1  LIG1        0.0537
     15 C          -0.9256    4.3657    0.3851 C.ar    1  LIG1        0.0440
     16 S          -1.8179    2.9944    0.9231 S.2     1  LIG1       -0.0848
     17 S           2.0840    1.8254   -0.4422 S.3     1  LIG1       -0.1403
     18 H           2.8464    2.8595   -0.0624 H       1  LIG1        0.1072
     19 C           1.2612    4.9426   -0.6081 C.1     1  LIG1       -0.0674
     20 C           2.0580    5.7262   -1.0515 C.1     1  LIG1       -0.1138
     21 H           2.7515    6.4342   -1.4427 H       1  LIG1        0.1232
     22 C          -1.4996    5.7127    0.4321 C.ar    1  LIG1        0.0421
     23 C          -0.9703    6.8338    1.0076 C.ar    1  LIG1        0.0361
     24 C          -1.8529    7.9702    0.8854 C.ar    1  LIG1        0.0537
     25 C          -3.0168    7.6715    0.2268 C.ar    1  LIG1        0.0440
     26 S          -3.0470    6.0242   -0.2813 S.2     1  LIG1       -0.0848
     27 S           0.5925    6.8993    1.8310 S.3     1  LIG1       -0.1403
     28 H           0.1585    7.7290    2.7897 H       1  LIG1        0.1072
     29 C          -1.5752    9.2569    1.4529 C.1     1  LIG1       -0.0674
     30 C          -1.3406   10.3338    1.9331 C.1     1  LIG1       -0.1138
     31 H          -1.1449   11.2983    2.3421 H       1  LIG1        0.1232
     32 C          -4.1276    8.5792   -0.0704 C.ar    1  LIG1        0.0415
     33 C          -4.0819    9.7865   -0.7093 C.ar    1  LIG1        0.0355
     34 C          -5.3969   10.3755   -0.8387 C.ar    1  LIG1        0.0454
     35 C          -6.3752    9.5889   -0.3047 C.ar    1  LIG1       -0.0072
     36 S          -5.7464    8.1544    0.3828 S.2     1  LIG1       -0.0937
     37 H          -7.4318    9.7999   -0.2827 H       1  LIG1        0.0706
     38 S          -2.6059   10.5425   -1.3214 S.3     1  LIG1       -0.1403
     39 H          -3.2173   11.0721   -2.3888 H       1  LIG1        0.1072
     40 C          -5.6410   11.6328   -1.4891 C.1     1  LIG1       -0.0680
     41 C          -5.8237   12.6825   -2.0460 C.1     1  LIG1       -0.1139
     42 H          -5.9908   13.6159   -2.5328 H       1  LIG1        0.1232
@<TRIPOS>BOND
     1    11    10    1
     2    10     9    3
     3    42    41    1
     4    39    38    1
     5    41    40    3
     6    40    34    1
     7    21    20    1
     8     9     3    1
     9    38    33    1
    10    20    19    3
    11     8     7    1
    12    34    33   ar
    13    34    35   ar
    14    33    32   ar
    15    19    14    1
    16    17    18    1
    17    17    13    1
    18    35    37    1
    19    35    36   ar
    20    26    25   ar
    21    26    22   ar
    22     7     2    1
    23    32    25    1
    24    32    36   ar
    25    14    13   ar
    26    14    15   ar
    27     3     2   ar
    28     3     4   ar
    29    13    12   ar
    30    25    24   ar
    31    15    22    1
    32    15    16   ar
    33    22    23   ar
    34    12     4    1
    35    12    16   ar
    36     2     1   ar
    37     4     5   ar
    38    24    23   ar
    39    24    29    1
    40    23    27    1
    41    29    30    3
    42    27    28    1
    43     1     5   ar
    44     1     6    1
    45    30    31    1
