@<TRIPOS>MOLECULE
mol_data/opt/m06hf/geoms/mol2/5ge5ge-5ge-5ge.out
 42 45 0 0 0
SMALL
GASTEIGER

@<TRIPOS>ATOM
      1 C          -1.3442   -1.4047    2.3366 C.ar    1  LIG1       -0.0093
      2 C          -0.8706   -1.6912    1.0966 C.ar    1  LIG1        0.0278
      3 C          -0.5415   -0.4993    0.3513 C.ar    1  LIG1        0.0531
      4 C          -0.7703    0.6453    1.0704 C.ar    1  LIG1        0.0434
      5 S          -1.4035    0.2876    2.6363 S.2     1  LIG1       -0.0937
      6 H          -1.6527   -2.1084    3.0928 H       1  LIG1        0.0705
      7 S          -0.7887   -3.3370    0.4479 S.3     1  LIG1       -0.1409
      8 H           0.4255   -3.2095   -0.1010 H       1  LIG1        0.1072
      9 C          -0.0466   -0.5075   -0.9938 C.1     1  LIG1       -0.0674
     10 C           0.3798   -0.5188   -2.1177 C.1     1  LIG1       -0.1138
     11 H           0.7602   -0.5128   -3.1132 H       1  LIG1        0.1232
     12 C          -0.5368    2.0253    0.6376 C.ar    1  LIG1        0.0421
     13 C           0.6117    2.5687    0.1348 C.ar    1  LIG1        0.0361
     14 C           0.4569    3.9708   -0.1723 C.ar    1  LIG1        0.0537
     15 C          -0.7909    4.4474    0.1359 C.ar    1  LIG1        0.0440
     16 S          -1.8051    3.2011    0.7581 S.2     1  LIG1       -0.0848
     17 S           2.1180    1.6776   -0.1179 S.3     1  LIG1       -0.1403
     18 H           2.8892    2.6729    0.3399 H       1  LIG1        0.1072
     19 C           1.4928    4.7770   -0.7482 C.1     1  LIG1       -0.0674
     20 C           2.3675    5.4507   -1.2243 C.1     1  LIG1       -0.1138
     21 H           3.1328    6.0593   -1.6482 H       1  LIG1        0.1232
     22 C          -1.2798    5.8201   -0.0155 C.ar    1  LIG1        0.0421
     23 C          -0.7146    6.9724    0.4541 C.ar    1  LIG1        0.0361
     24 C          -1.5056    8.1343    0.1248 C.ar    1  LIG1        0.0537
     25 C          -2.6522    7.8200   -0.5575 C.ar    1  LIG1        0.0440
     26 S          -2.7707    6.1265   -0.8449 S.2     1  LIG1       -0.0848
     27 S           0.8051    7.0509    1.3536 S.3     1  LIG1       -0.1403
     28 H           0.3649    7.9854    2.2049 H       1  LIG1        0.1072
     29 C          -1.1312    9.4744    0.4686 C.1     1  LIG1       -0.0674
     30 C          -0.8180   10.5951    0.7702 C.1     1  LIG1       -0.1138
     31 H          -0.5544   11.5943    1.0309 H       1  LIG1        0.1232
     32 C          -3.6966    8.7418   -1.0126 C.ar    1  LIG1        0.0415
     33 C          -4.3931    9.6557   -0.2718 C.ar    1  LIG1        0.0355
     34 C          -5.3760   10.3563   -1.0683 C.ar    1  LIG1        0.0454
     35 C          -5.3884    9.9373   -2.3668 C.ar    1  LIG1       -0.0072
     36 S          -4.2154    8.7300   -2.6665 S.2     1  LIG1       -0.0937
     37 H          -6.0309   10.2977   -3.1534 H       1  LIG1        0.0706
     38 S          -4.1365    9.9539    1.4511 S.3     1  LIG1       -0.1403
     39 H          -5.4391   10.1272    1.7109 H       1  LIG1        0.1072
     40 C          -6.2615   11.3558   -0.5398 C.1     1  LIG1       -0.0680
     41 C          -7.0032   12.1818   -0.0802 C.1     1  LIG1       -0.1139
     42 H          -7.6597   12.9200    0.3187 H       1  LIG1        0.1232
@<TRIPOS>BOND
     1    37    35    1
     2    11    10    1
     3    36    35   ar
     4    36    32   ar
     5    35    34   ar
     6    10     9    3
     7    21    20    1
     8    20    19    3
     9    34    40    1
    10    34    33   ar
    11    32    25    1
    12    32    33   ar
    13     9     3    1
    14    26    25   ar
    15    26    22   ar
    16    19    14    1
    17    25    24   ar
    18    40    41    3
    19    33    38    1
    20    14    13   ar
    21    14    15   ar
    22    17    13    1
    23    17    18    1
    24     8     7    1
    25    41    42    1
    26    22    15    1
    27    22    23   ar
    28    24    23   ar
    29    24    29    1
    30    13    12   ar
    31    15    16   ar
    32     3     4   ar
    33     3     2   ar
    34     7     2    1
    35    23    27    1
    36    29    30    3
    37    12    16   ar
    38    12     4    1
    39    30    31    1
    40     4     5   ar
    41     2     1   ar
    42    27    28    1
    43    38    39    1
    44     1     5   ar
    45     1     6    1
