@<TRIPOS>MOLECULE
mol_data/opt/m06hf/geoms/mol2/5ge5ge5ge-5ge.out
 42 45 0 0 0
SMALL
GASTEIGER

@<TRIPOS>ATOM
      1 C          -1.4218   -1.3996    2.3376 C.ar    1  LIG1       -0.0093
      2 C          -0.9284   -1.6919    1.1068 C.ar    1  LIG1        0.0278
      3 C          -0.5799   -0.5039    0.3643 C.ar    1  LIG1        0.0531
      4 C          -0.8147    0.6438    1.0763 C.ar    1  LIG1        0.0434
      5 S          -1.4770    0.2938    2.6318 S.2     1  LIG1       -0.0937
      6 H          -1.7473   -2.0995    3.0902 H       1  LIG1        0.0705
      7 S          -0.8444   -3.3398    0.4637 S.3     1  LIG1       -0.1409
      8 H           0.3796   -3.2202   -0.0645 H       1  LIG1        0.1072
      9 C          -0.0616   -0.5184   -0.9719 C.1     1  LIG1       -0.0674
     10 C           0.3843   -0.5351   -2.0882 C.1     1  LIG1       -0.1138
     11 H           0.7820   -0.5337   -3.0769 H       1  LIG1        0.1232
     12 C          -0.5660    2.0213    0.6441 C.ar    1  LIG1        0.0421
     13 C           0.5942    2.5570    0.1600 C.ar    1  LIG1        0.0361
     14 C           0.4526    3.9590   -0.1535 C.ar    1  LIG1        0.0537
     15 C          -0.7977    4.4434    0.1316 C.ar    1  LIG1        0.0440
     16 S          -1.8295    3.2046    0.7395 S.2     1  LIG1       -0.0848
     17 S           2.0996    1.6568   -0.0641 S.3     1  LIG1       -0.1403
     18 H           2.8684    2.6488    0.4047 H       1  LIG1        0.1072
     19 C           1.5028    4.7579   -0.7134 C.1     1  LIG1       -0.0674
     20 C           2.3894    5.4253   -1.1761 C.1     1  LIG1       -0.1138
     21 H           3.1653    6.0286   -1.5884 H       1  LIG1        0.1232
     22 C          -1.2762    5.8184   -0.0320 C.ar    1  LIG1        0.0421
     23 C          -0.7127    6.9689    0.4443 C.ar    1  LIG1        0.0361
     24 C          -1.4913    8.1343    0.0981 C.ar    1  LIG1        0.0537
     25 C          -2.6276    7.8244   -0.6032 C.ar    1  LIG1        0.0440
     26 S          -2.7506    6.1309   -0.8880 S.2     1  LIG1       -0.0848
     27 S           0.7915    7.0414    1.3699 S.3     1  LIG1       -0.1403
     28 H           0.3417    7.9806    2.2110 H       1  LIG1        0.1072
     29 C          -1.1153    9.4732    0.4446 C.1     1  LIG1       -0.0674
     30 C          -0.8010   10.5930    0.7486 C.1     1  LIG1       -0.1138
     31 H          -0.5360   11.5913    1.0110 H       1  LIG1        0.1232
     32 C          -3.6587    8.7508   -1.0790 C.ar    1  LIG1        0.0415
     33 C          -4.3628    9.6706   -0.3530 C.ar    1  LIG1        0.0355
     34 C          -5.3278   10.3744   -1.1684 C.ar    1  LIG1        0.0454
     35 C          -5.3200    9.9517   -2.4657 C.ar    1  LIG1       -0.0072
     36 S          -4.1486    8.7373   -2.7416 S.2     1  LIG1       -0.0937
     37 H          -5.9467   10.3134   -3.2643 H       1  LIG1        0.0706
     38 S          -4.1347    9.9722    1.3734 S.3     1  LIG1       -0.1403
     39 H          -5.4407   10.1532    1.6099 H       1  LIG1        0.1072
     40 C          -6.2168   11.3802   -0.6581 C.1     1  LIG1       -0.0680
     41 C          -6.9619   12.2116   -0.2138 C.1     1  LIG1       -0.1139
     42 H          -7.6211   12.9546    0.1715 H       1  LIG1        0.1232
@<TRIPOS>BOND
     1    37    35    1
     2    11    10    1
     3    36    35   ar
     4    36    32   ar
     5    35    34   ar
     6    10     9    3
     7    21    20    1
     8    20    19    3
     9    34    40    1
    10    34    33   ar
    11    32    25    1
    12    32    33   ar
    13     9     3    1
    14    26    25   ar
    15    26    22   ar
    16    19    14    1
    17    40    41    3
    18    25    24   ar
    19    33    38    1
    20    41    42    1
    21    14    15   ar
    22    14    13   ar
    23     8     7    1
    24    17    13    1
    25    17    18    1
    26    22    15    1
    27    22    23   ar
    28    24    23   ar
    29    24    29    1
    30    15    16   ar
    31    13    12   ar
    32     3     4   ar
    33     3     2   ar
    34    23    27    1
    35    29    30    3
    36     7     2    1
    37    12    16   ar
    38    12     4    1
    39    30    31    1
    40     4     5   ar
    41     2     1   ar
    42    27    28    1
    43    38    39    1
    44     1     5   ar
    45     1     6    1
