@<TRIPOS>MOLECULE
mol_data/opt/m06hf/geoms/mol2/5ge5ge-5ge5ge-.out
 42 45 0 0 0
SMALL
GASTEIGER

@<TRIPOS>ATOM
      1 C          -1.3704   -1.4098    2.3256 C.ar    1  LIG1       -0.0093
      2 C          -0.8973   -1.6958    1.0853 C.ar    1  LIG1        0.0278
      3 C          -0.5636   -0.5038    0.3422 C.ar    1  LIG1        0.0531
      4 C          -0.7885    0.6403    1.0632 C.ar    1  LIG1        0.0434
      5 S          -1.4237    0.2823    2.6282 S.2     1  LIG1       -0.0937
      6 H          -1.6819   -2.1136    3.0805 H       1  LIG1        0.0705
      7 S          -0.8210   -3.3407    0.4337 S.3     1  LIG1       -0.1409
      8 H           0.3935   -3.2160   -0.1151 H       1  LIG1        0.1072
      9 C          -0.0680   -0.5115   -1.0026 C.1     1  LIG1       -0.0674
     10 C           0.3587   -0.5226   -2.1264 C.1     1  LIG1       -0.1138
     11 H           0.7395   -0.5163   -3.1217 H       1  LIG1        0.1232
     12 C          -0.5496    2.0202    0.6329 C.ar    1  LIG1        0.0421
     13 C           0.6013    2.5601    0.1315 C.ar    1  LIG1        0.0361
     14 C           0.4519    3.9632   -0.1733 C.ar    1  LIG1        0.0537
     15 C          -0.7942    4.4440    0.1352 C.ar    1  LIG1        0.0440
     16 S          -1.8135    3.2006    0.7549 S.2     1  LIG1       -0.0848
     17 S           2.1043    1.6638   -0.1220 S.3     1  LIG1       -0.1403
     18 H           2.8790    2.6553    0.3378 H       1  LIG1        0.1072
     19 C           1.4911    4.7665   -0.7473 C.1     1  LIG1       -0.0674
     20 C           2.3685    5.4376   -1.2219 C.1     1  LIG1       -0.1138
     21 H           3.1363    6.0441   -1.6445 H       1  LIG1        0.1232
     22 C          -1.2778    5.8189   -0.0141 C.ar    1  LIG1        0.0421
     23 C          -0.7083    6.9682    0.4577 C.ar    1  LIG1        0.0361
     24 C          -1.4947    8.1338    0.1300 C.ar    1  LIG1        0.0537
     25 C          -2.6423    7.8250   -0.5532 C.ar    1  LIG1        0.0440
     26 S          -2.7672    6.1325   -0.8434 S.2     1  LIG1       -0.0848
     27 S           0.8114    7.0393    1.3577 S.3     1  LIG1       -0.1403
     28 H           0.3744    7.9740    2.2106 H       1  LIG1        0.1072
     29 C          -1.1151    9.4718    0.4761 C.1     1  LIG1       -0.0674
     30 C          -0.7976   10.5908    0.7797 C.1     1  LIG1       -0.1138
     31 H          -0.5301   11.5885    1.0421 H       1  LIG1        0.1232
     32 C          -3.6829    8.7517   -1.0072 C.ar    1  LIG1        0.0415
     33 C          -4.3759    9.6671   -0.2652 C.ar    1  LIG1        0.0355
     34 C          -5.3559   10.3729   -1.0609 C.ar    1  LIG1        0.0454
     35 C          -5.3695    9.9559   -2.3601 C.ar    1  LIG1       -0.0072
     36 S          -4.2011    8.7445   -2.6613 S.2     1  LIG1       -0.0937
     37 H          -6.0104   10.3200   -3.1463 H       1  LIG1        0.0706
     38 S          -4.1189    9.9616    1.4583 S.3     1  LIG1       -0.1403
     39 H          -5.4209   10.1395    1.7178 H       1  LIG1        0.1072
     40 C          -6.2376   11.3749   -0.5312 C.1     1  LIG1       -0.0680
     41 C          -6.9763   12.2032   -0.0706 C.1     1  LIG1       -0.1139
     42 H          -7.6300   12.9434    0.3292 H       1  LIG1        0.1232
@<TRIPOS>BOND
     1    37    35    1
     2    11    10    1
     3    36    35   ar
     4    36    32   ar
     5    35    34   ar
     6    10     9    3
     7    21    20    1
     8    20    19    3
     9    34    40    1
    10    34    33   ar
    11    32    25    1
    12    32    33   ar
    13     9     3    1
    14    26    25   ar
    15    26    22   ar
    16    19    14    1
    17    25    24   ar
    18    40    41    3
    19    33    38    1
    20    14    13   ar
    21    14    15   ar
    22    17    13    1
    23    17    18    1
    24     8     7    1
    25    41    42    1
    26    22    15    1
    27    22    23   ar
    28    24    23   ar
    29    24    29    1
    30    13    12   ar
    31    15    16   ar
    32     3     4   ar
    33     3     2   ar
    34     7     2    1
    35    23    27    1
    36    29    30    3
    37    12    16   ar
    38    12     4    1
    39    30    31    1
    40     4     5   ar
    41     2     1   ar
    42    27    28    1
    43    38    39    1
    44     1     5   ar
    45     1     6    1
