@<TRIPOS>MOLECULE
mol_data/opt/m06hf/geoms/mol2/5ge5ge-5ge-5ge-.out
 42 45 0 0 0
SMALL
GASTEIGER

@<TRIPOS>ATOM
      1 C          -2.0231   -1.8809   -0.1715 C.ar    1  LIG1       -0.0093
      2 C          -0.7652   -1.8735    0.3416 C.ar    1  LIG1        0.0278
      3 C          -0.2044   -0.5426    0.3736 C.ar    1  LIG1        0.0531
      4 C          -1.0618    0.4009   -0.1307 C.ar    1  LIG1        0.0434
      5 S          -2.5474   -0.3092   -0.6371 S.2     1  LIG1       -0.0937
      6 H          -2.6721   -2.7314   -0.3041 H       1  LIG1        0.0705
      7 S           0.0661   -3.3213    0.9253 S.3     1  LIG1       -0.1409
      8 H           1.1922   -2.6752    1.2485 H       1  LIG1        0.1072
      9 C           1.0890   -0.2343    0.9089 C.1     1  LIG1       -0.0674
     10 C           2.1768    0.0077    1.3624 C.1     1  LIG1       -0.1138
     11 H           3.1384    0.2469    1.7556 H       1  LIG1        0.1232
     12 C          -0.8274    1.8416   -0.2555 C.ar    1  LIG1        0.0421
     13 C           0.2162    2.4813   -0.8631 C.ar    1  LIG1        0.0361
     14 C           0.0685    3.9176   -0.8207 C.ar    1  LIG1        0.0537
     15 C          -1.0753    4.3152   -0.1772 C.ar    1  LIG1        0.0440
     16 S          -1.9725    2.9617    0.4039 S.2     1  LIG1       -0.0848
     17 S           1.5825    1.6572   -1.6216 S.3     1  LIG1       -0.1403
     18 H           1.6694    2.5210   -2.6419 H       1  LIG1        0.1072
     19 C           0.9756    4.8265   -1.4567 C.1     1  LIG1       -0.0674
     20 C           1.7324    5.5849   -2.0024 C.1     1  LIG1       -0.1138
     21 H           2.3963    6.2732   -2.4728 H       1  LIG1        0.1232
     22 C          -1.5482    5.6813    0.0516 C.ar    1  LIG1        0.0421
     23 C          -0.8657    6.7434    0.5773 C.ar    1  LIG1        0.0361
     24 C          -1.7033    7.9140    0.7005 C.ar    1  LIG1        0.0537
     25 C          -2.9871    7.6990    0.2723 C.ar    1  LIG1        0.0440
     26 S          -3.1929    6.0944   -0.3193 S.2     1  LIG1       -0.0848
     27 S           0.8241    6.7026    1.0950 S.3     1  LIG1       -0.1403
     28 H           0.6118    7.5205    2.1348 H       1  LIG1        0.1072
     29 C          -1.2630    9.1475    1.2824 C.1     1  LIG1       -0.0674
     30 C          -0.8884   10.1763    1.7789 C.1     1  LIG1       -0.1138
     31 H          -0.5692   11.0988    2.2067 H       1  LIG1        0.1232
     32 C          -4.0997    8.6521    0.2738 C.ar    1  LIG1        0.0415
     33 C          -4.1426    9.9099   -0.2587 C.ar    1  LIG1        0.0355
     34 C          -5.4375   10.5276   -0.0754 C.ar    1  LIG1        0.0454
     35 C          -6.3176    9.7108    0.5726 C.ar    1  LIG1       -0.0072
     36 S          -5.6119    8.2127    0.9999 S.2     1  LIG1       -0.0937
     37 H          -7.3419    9.9346    0.8218 H       1  LIG1        0.0706
     38 S          -2.7874   10.6969   -1.0784 S.3     1  LIG1       -0.1403
     39 H          -3.5575   11.2399   -2.0304 H       1  LIG1        0.1072
     40 C          -5.7646   11.8417   -0.5530 C.1     1  LIG1       -0.0680
     41 C          -6.0251   12.9394   -0.9664 C.1     1  LIG1       -0.1139
     42 H          -6.2585   13.9149   -1.3259 H       1  LIG1        0.1232
@<TRIPOS>BOND
     1    18    17    1
     2    21    20    1
     3    39    38    1
     4    20    19    3
     5    17    13    1
     6    19    14    1
     7    42    41    1
     8    38    33    1
     9    41    40    3
    10    13    14   ar
    11    13    12   ar
    12    14    15   ar
    13     5     1   ar
    14     5     4   ar
    15    40    34    1
    16    26    22   ar
    17    26    25   ar
    18     6     1    1
    19    33    34   ar
    20    33    32   ar
    21    12     4    1
    22    12    16   ar
    23    15    22    1
    24    15    16   ar
    25     1     2   ar
    26     4     3   ar
    27    34    35   ar
    28    22    23   ar
    29    25    32    1
    30    25    24   ar
    31    32    36   ar
    32     2     3   ar
    33     2     7    1
    34     3     9    1
    35    35    37    1
    36    35    36   ar
    37    23    24   ar
    38    23    27    1
    39    24    29    1
    40     9    10    3
    41     7     8    1
    42    27    28    1
    43    29    30    3
    44    10    11    1
    45    30    31    1
