@<TRIPOS>MOLECULE
mol_data/opt/m06hf/geoms/mol2/5ge5ge5ge-.out
 32 34 0 0 0
SMALL
GASTEIGER

@<TRIPOS>ATOM
      1 C          -1.8443   -1.6020    1.5356 C.ar    1  LIG1       -0.0093
      2 C          -0.8609   -1.8113    0.6217 C.ar    1  LIG1        0.0278
      3 C          -0.3487   -0.5702    0.0891 C.ar    1  LIG1        0.0531
      4 C          -0.9624    0.5288    0.6343 C.ar    1  LIG1        0.0434
      5 S          -2.1557    0.0711    1.7874 S.2     1  LIG1       -0.0937
      6 H          -2.4040   -2.3475    2.0767 H       1  LIG1        0.0705
      7 S          -0.2852   -3.4149    0.1453 S.3     1  LIG1       -0.1409
      8 H           0.5308   -2.9540   -0.8097 H       1  LIG1        0.1072
      9 C           0.6591   -0.4965   -0.9269 C.1     1  LIG1       -0.0674
     10 C           1.5091   -0.4539   -1.7767 C.1     1  LIG1       -0.1138
     11 H           2.2667   -0.3903   -2.5237 H       1  LIG1        0.1232
     12 C          -0.6832    1.9362    0.3362 C.ar    1  LIG1        0.0421
     13 C           0.5196    2.5835    0.3829 C.ar    1  LIG1        0.0361
     14 C           0.3966    3.9784    0.0305 C.ar    1  LIG1        0.0537
     15 C          -0.8950    4.3464   -0.2435 C.ar    1  LIG1        0.0440
     16 S          -1.9719    3.0073   -0.1130 S.2     1  LIG1       -0.0848
     17 S           2.0522    1.8186    0.8147 S.3     1  LIG1       -0.1403
     18 H           2.5408    2.9165    1.4076 H       1  LIG1        0.1072
     19 C           1.5105    4.8780   -0.0343 C.1     1  LIG1       -0.0674
     20 C           2.4528    5.6234   -0.0754 C.1     1  LIG1       -0.1138
     21 H           3.2784    6.2959   -0.1176 H       1  LIG1        0.1232
     22 C          -1.3771    5.6778   -0.6216 C.ar    1  LIG1        0.0415
     23 C          -1.2025    6.8589    0.0424 C.ar    1  LIG1        0.0355
     24 C          -1.8443    7.9602   -0.6418 C.ar    1  LIG1        0.0454
     25 C          -2.4809    7.5663   -1.7822 C.ar    1  LIG1       -0.0072
     26 S          -2.3065    5.8898   -2.0713 S.2     1  LIG1       -0.0937
     27 H          -3.0355    8.1948   -2.4595 H       1  LIG1        0.0706
     28 S          -0.3132    7.0325    1.5594 S.3     1  LIG1       -0.1403
     29 H          -1.0549    8.0651    1.9814 H       1  LIG1        0.1072
     30 C          -1.8387    9.3100   -0.1503 C.1     1  LIG1       -0.0680
     31 C          -1.8301   10.4308    0.2846 C.1     1  LIG1       -0.1139
     32 H          -1.8211   11.4283    0.6603 H       1  LIG1        0.1232
@<TRIPOS>BOND
     1    11    10    1
     2    27    25    1
     3    26    25   ar
     4    26    22   ar
     5    25    24   ar
     6    10     9    3
     7     9     3    1
     8     8     7    1
     9    24    30    1
    10    24    23   ar
    11    22    15    1
    12    22    23   ar
    13    15    16   ar
    14    15    14   ar
    15    30    31    3
    16    21    20    1
    17    16    12   ar
    18    20    19    3
    19    19    14    1
    20    14    13   ar
    21    23    28    1
    22     3     2   ar
    23     3     4   ar
    24     7     2    1
    25    31    32    1
    26    12    13   ar
    27    12     4    1
    28    13    17    1
    29     2     1   ar
    30     4     5   ar
    31    17    18    1
    32     1     5   ar
    33     1     6    1
    34    28    29    1
