@<TRIPOS>MOLECULE
mol_data/opt/m06hf/geoms/mol2/5ge5ge-.out
 22 23 0 0 0
SMALL
GASTEIGER

@<TRIPOS>ATOM
      1 C          -2.0519   -1.6643    0.7913 C.ar    1  LIG1       -0.0093
      2 C          -0.7862   -1.8022    0.3185 C.ar    1  LIG1        0.0278
      3 C          -0.2214   -0.5357   -0.0872 C.ar    1  LIG1        0.0531
      4 C          -1.0847    0.5121    0.1068 C.ar    1  LIG1        0.0434
      5 S          -2.5798   -0.0262    0.7738 S.2     1  LIG1       -0.0937
      6 H          -2.7028   -2.4427    1.1547 H       1  LIG1        0.0705
      7 S           0.0493   -3.3564    0.1845 S.3     1  LIG1       -0.1409
      8 H           1.2023   -2.8242   -0.2341 H       1  LIG1        0.1072
      9 C           1.0846   -0.3956   -0.6605 C.1     1  LIG1       -0.0674
     10 C           2.1866   -0.2967   -1.1317 C.1     1  LIG1       -0.1138
     11 H           3.1625   -0.1838   -1.5447 H       1  LIG1        0.1232
     12 C          -0.8459    1.9279   -0.1863 C.ar    1  LIG1        0.0414
     13 C           0.1858    2.7182    0.2365 C.ar    1  LIG1        0.0355
     14 C           0.0561    4.0765   -0.2447 C.ar    1  LIG1        0.0454
     15 C          -1.0676    4.2588   -0.9967 C.ar    1  LIG1       -0.0072
     16 S          -1.9686    2.8143   -1.1692 S.2     1  LIG1       -0.0937
     17 H          -1.3902    5.1770   -1.4593 H       1  LIG1        0.0706
     18 S           1.5171    2.1617    1.2556 S.3     1  LIG1       -0.1403
     19 H           1.6266    3.3278    1.9071 H       1  LIG1        0.1072
     20 C           0.9899    5.1223    0.0678 C.1     1  LIG1       -0.0680
     21 C           1.7761    5.9880    0.3464 C.1     1  LIG1       -0.1139
     22 H           2.4709    6.7607    0.5832 H       1  LIG1        0.1232
@<TRIPOS>BOND
     1    11    10    1
     2    17    15    1
     3    16    15   ar
     4    16    12   ar
     5    10     9    3
     6    15    14   ar
     7     9     3    1
     8    14    20    1
     9    14    13   ar
    10     8     7    1
    11    12     4    1
    12    12    13   ar
    13     3     4   ar
    14     3     2   ar
    15    20    21    3
    16     4     5   ar
    17     7     2    1
    18    13    18    1
    19     2     1   ar
    20    21    22    1
    21     5     1   ar
    22     1     6    1
    23    18    19    1
