@<TRIPOS>MOLECULE
mol_data/opt/m06hf/geoms/mol2/5ge5ge5ge.out
 32 34 0 0 0
SMALL
GASTEIGER

@<TRIPOS>ATOM
      1 C          -1.8768   -1.8620    0.6529 C.ar    1  LIG1       -0.0093
      2 C          -0.7745   -1.8343   -0.1403 C.ar    1  LIG1        0.0278
      3 C          -0.2681   -0.4922   -0.3121 C.ar    1  LIG1        0.0531
      4 C          -1.0057    0.4394    0.3727 C.ar    1  LIG1        0.0434
      5 S          -2.3139   -0.2974    1.2193 S.2     1  LIG1       -0.0937
      6 H          -2.4566   -2.7251    0.9379 H       1  LIG1        0.0705
      7 S          -0.0592   -3.2741   -0.8782 S.3     1  LIG1       -0.1409
      8 H           0.8935   -2.5966   -1.5302 H       1  LIG1        0.1072
      9 C           0.8539   -0.1635   -1.1412 C.1     1  LIG1       -0.0674
     10 C           1.7967    0.0976   -1.8416 C.1     1  LIG1       -0.1138
     11 H           2.6310    0.3560   -2.4528 H       1  LIG1        0.1232
     12 C          -0.7737    1.8846    0.4399 C.ar    1  LIG1        0.0421
     13 C           0.3708    2.5389    0.8006 C.ar    1  LIG1        0.0361
     14 C           0.1966    3.9725    0.7965 C.ar    1  LIG1        0.0537
     15 C          -1.0685    4.3535    0.4306 C.ar    1  LIG1        0.0440
     16 S          -2.0540    2.9897    0.0595 S.2     1  LIG1       -0.0848
     17 S           1.8806    1.7384    1.2464 S.3     1  LIG1       -0.1403
     18 H           2.2193    2.6672    2.1507 H       1  LIG1        0.1072
     19 C           1.2143    4.8946    1.2059 C.1     1  LIG1       -0.0674
     20 C           2.0720    5.6601    1.5579 C.1     1  LIG1       -0.1138
     21 H           2.8250    6.3530    1.8555 H       1  LIG1        0.1232
     22 C          -1.5942    5.7170    0.3281 C.ar    1  LIG1        0.0415
     23 C          -1.0717    6.7803   -0.3546 C.ar    1  LIG1        0.0355
     24 C          -1.9046    7.9569   -0.2342 C.ar    1  LIG1        0.0454
     25 C          -3.0185    7.7331    0.5202 C.ar    1  LIG1       -0.0072
     26 S          -3.0805    6.1331    1.1200 S.2     1  LIG1       -0.0937
     27 H          -3.7940    8.4454    0.7509 H       1  LIG1        0.0706
     28 S           0.4368    6.7361   -1.2734 S.3     1  LIG1       -0.1403
     29 H          -0.0213    7.5268   -2.2537 H       1  LIG1        0.1072
     30 C          -1.6037    9.2100   -0.8686 C.1     1  LIG1       -0.0680
     31 C          -1.3402   10.2472   -1.4158 C.1     1  LIG1       -0.1139
     32 H          -1.1084   11.1709   -1.8940 H       1  LIG1        0.1232
@<TRIPOS>BOND
     1    11    10    1
     2    29    28    1
     3    32    31    1
     4    10     9    3
     5     8     7    1
     6    31    30    3
     7    28    23    1
     8     9     3    1
     9     7     2    1
    10    30    24    1
    11    23    24   ar
    12    23    22   ar
    13     3     2   ar
    14     3     4   ar
    15    24    25   ar
    16     2     1   ar
    17    16    15   ar
    18    16    12   ar
    19    22    15    1
    20    22    26   ar
    21     4    12    1
    22     4     5   ar
    23    15    14   ar
    24    12    13   ar
    25    25    27    1
    26    25    26   ar
    27     1     6    1
    28     1     5   ar
    29    14    13   ar
    30    14    19    1
    31    13    17    1
    32    19    20    3
    33    17    18    1
    34    20    21    1
