@<TRIPOS>MOLECULE
mol_data/opt/m06hf/geoms/mol2/5ge5ge.out
 22 23 0 0 0
SMALL
GASTEIGER

@<TRIPOS>ATOM
      1 C          -2.0572   -1.6661    0.7775 C.ar    1  LIG1       -0.0093
      2 C          -0.7889   -1.8029    0.3113 C.ar    1  LIG1        0.0278
      3 C          -0.2216   -0.5352   -0.0872 C.ar    1  LIG1        0.0531
      4 C          -1.0856    0.5121    0.1056 C.ar    1  LIG1        0.0434
      5 S          -2.5845   -0.0279    0.7627 S.2     1  LIG1       -0.0937
      6 H          -2.7103   -2.4456    1.1348 H       1  LIG1        0.0705
      7 S           0.0469   -3.3568    0.1768 S.3     1  LIG1       -0.1409
      8 H           1.2027   -2.8236   -0.2329 H       1  LIG1        0.1072
      9 C           1.0875   -0.3936   -0.6527 C.1     1  LIG1       -0.0674
     10 C           2.1923   -0.2937   -1.1174 C.1     1  LIG1       -0.1138
     11 H           3.1704   -0.1799   -1.5245 H       1  LIG1        0.1232
     12 C          -0.8448    1.9289   -0.1813 C.ar    1  LIG1        0.0414
     13 C           0.1850    2.7173    0.2497 C.ar    1  LIG1        0.0355
     14 C           0.0582    4.0773   -0.2273 C.ar    1  LIG1        0.0454
     15 C          -1.0614    4.2627   -0.9846 C.ar    1  LIG1       -0.0072
     16 S          -1.9620    2.8191   -1.1668 S.2     1  LIG1       -0.0937
     17 H          -1.3813    5.1826   -1.4456 H       1  LIG1        0.0706
     18 S           1.5108    2.1567    1.2736 S.3     1  LIG1       -0.1403
     19 H           1.6165    3.3201    1.9305 H       1  LIG1        0.1072
     20 C           0.9905    5.1217    0.0940 C.1     1  LIG1       -0.0680
     21 C           1.7753    5.9862    0.3801 C.1     1  LIG1       -0.1139
     22 H           2.4690    6.7579    0.6234 H       1  LIG1        0.1232
@<TRIPOS>BOND
     1    11    10    1
     2    17    15    1
     3    16    15   ar
     4    16    12   ar
     5    10     9    3
     6    15    14   ar
     7     9     3    1
     8     8     7    1
     9    14    20    1
    10    14    13   ar
    11    12     4    1
    12    12    13   ar
    13     3     4   ar
    14     3     2   ar
    15    20    21    3
    16     4     5   ar
    17     7     2    1
    18    13    18    1
    19     2     1   ar
    20    21    22    1
    21     5     1   ar
    22     1     6    1
    23    18    19    1
