@<TRIPOS>MOLECULE
mol_data/opt/m06hf/geoms/mol2/5ge5ge-5ge-.out
 32 34 0 0 0
SMALL
GASTEIGER

@<TRIPOS>ATOM
      1 C          -1.9153   -1.8601   -0.5766 C.ar    1  LIG1       -0.0093
      2 C          -0.8095   -1.8299    0.2116 C.ar    1  LIG1        0.0278
      3 C          -0.2933   -0.4891    0.3644 C.ar    1  LIG1        0.0531
      4 C          -1.0276    0.4388   -0.3289 C.ar    1  LIG1        0.0434
      5 S          -2.3442   -0.2998   -1.1609 S.2     1  LIG1       -0.0937
      6 H          -2.5020   -2.7228   -0.8482 H       1  LIG1        0.0705
      7 S          -0.1007   -3.2649    0.9647 S.3     1  LIG1       -0.1409
      8 H           0.8590   -2.5856    1.6045 H       1  LIG1        0.1072
      9 C           0.8343   -0.1576    1.1849 C.1     1  LIG1       -0.0674
     10 C           1.7815    0.1059    1.8782 C.1     1  LIG1       -0.1138
     11 H           2.6199    0.3662    2.4829 H       1  LIG1        0.1232
     12 C          -0.7864    1.8815   -0.4151 C.ar    1  LIG1        0.0421
     13 C           0.3609    2.5236   -0.7888 C.ar    1  LIG1        0.0361
     14 C           0.1962    3.9582   -0.8018 C.ar    1  LIG1        0.0537
     15 C          -1.0649    4.3522   -0.4354 C.ar    1  LIG1        0.0440
     16 S          -2.0577    2.9997   -0.0431 S.2     1  LIG1       -0.0848
     17 S           1.8634    1.7076   -1.2311 S.3     1  LIG1       -0.1403
     18 H           2.2044    2.6228   -2.1483 H       1  LIG1        0.1072
     19 C           1.2181    4.8684   -1.2270 C.1     1  LIG1       -0.0674
     20 C           2.0794    5.6238   -1.5920 C.1     1  LIG1       -0.1138
     21 H           2.8356    6.3079   -1.9014 H       1  LIG1        0.1232
     22 C          -1.5811    5.7204   -0.3478 C.ar    1  LIG1        0.0415
     23 C          -1.0486    6.7886    0.3193 C.ar    1  LIG1        0.0355
     24 C          -1.8742    7.9691    0.1876 C.ar    1  LIG1        0.0454
     25 C          -2.9927    7.7435   -0.5595 C.ar    1  LIG1       -0.0072
     26 S          -3.0679    6.1365   -1.1387 S.2     1  LIG1       -0.0937
     27 H          -3.7643    8.4580   -0.7960 H       1  LIG1        0.0706
     28 S           0.4634    6.7458    1.2324 S.3     1  LIG1       -0.1403
     29 H           0.0147    7.5522    2.2042 H       1  LIG1        0.1072
     30 C          -1.5623    9.2280    0.8050 C.1     1  LIG1       -0.0680
     31 C          -1.2895   10.2702    1.3379 C.1     1  LIG1       -0.1139
     32 H          -1.0496   11.1983    1.8035 H       1  LIG1        0.1232
@<TRIPOS>BOND
     1    18    17    1
     2    21    20    1
     3    20    19    3
     4    17    13    1
     5    19    14    1
     6     5     1   ar
     7     5     4   ar
     8    26    25   ar
     9    26    22   ar
    10     6     1    1
    11    14    13   ar
    12    14    15   ar
    13    27    25    1
    14    13    12   ar
    15     1     2   ar
    16    25    24   ar
    17    15    22    1
    18    15    16   ar
    19    12     4    1
    20    12    16   ar
    21    22    23   ar
    22     4     3   ar
    23    24    23   ar
    24    24    30    1
    25     2     3   ar
    26     2     7    1
    27    23    28    1
    28     3     9    1
    29    30    31    3
    30     7     8    1
    31     9    10    3
    32    28    29    1
    33    31    32    1
    34    10    11    1
