@<TRIPOS>MOLECULE
mol_data/opt/m06hf/geoms/mol2/5gf.out
 11 11 0 0 0
SMALL
GASTEIGER

@<TRIPOS>ATOM
      1 C          -2.1114   -1.6751   -0.0005 C.ar    1  LIG1       -0.0075
      2 C          -0.7567   -1.6447    0.0673 C.ar    1  LIG1        0.0533
      3 C          -0.2523   -0.2939    0.0545 C.ar    1  LIG1        0.1369
      4 C          -1.2345    0.6394   -0.0219 C.ar    1  LIG1        0.0183
      5 S          -2.7950   -0.0964   -0.0661 S.2     1  LIG1       -0.1002
      6 H          -2.7423   -2.5490   -0.0193 H       1  LIG1        0.0705
      7 H          -1.1273    1.7116   -0.0515 H       1  LIG1        0.0730
      8 S           0.2799   -3.0694    0.2283 S.3     1  LIG1       -0.1386
      9 H           1.3402   -2.5091   -0.3626 H       1  LIG1        0.1072
     10 O           1.0926   -0.0994    0.0977 O.3     1  LIG1       -0.5051
     11 H           1.3048    0.8394    0.0725 H       1  LIG1        0.2922
@<TRIPOS>BOND
     1     9     8    1
     2     5     4   ar
     3     5     1   ar
     4     7     4    1
     5     4     3   ar
     6     6     1    1
     7     1     2   ar
     8     3     2   ar
     9     3    10    1
    10     2     8    1
    11    11    10    1
