@<TRIPOS>MOLECULE
mol_data/opt/m06hf/geoms/mol2/5gf5gf-.out
 20 21 0 0 0
SMALL
GASTEIGER

@<TRIPOS>ATOM
      1 C          -2.0525   -1.7622    0.5436 C.ar    1  LIG1       -0.0069
      2 C          -0.8070   -1.7876    0.0069 C.ar    1  LIG1        0.0539
      3 C          -0.2956   -0.4601   -0.2335 C.ar    1  LIG1        0.1452
      4 C          -1.1698    0.5221    0.1394 C.ar    1  LIG1        0.0695
      5 S          -2.6268   -0.1559    0.7946 S.2     1  LIG1       -0.0912
      6 H          -2.6618   -2.6064    0.8231 H       1  LIG1        0.0706
      7 S           0.1087   -3.2490   -0.3805 S.3     1  LIG1       -0.1386
      8 H           1.1910   -2.5758   -0.7846 H       1  LIG1        0.1072
      9 O           0.9176   -0.3023   -0.8131 O.3     1  LIG1       -0.5045
     10 H           1.3778    0.4663   -0.4360 H       1  LIG1        0.2922
     11 C          -0.9966    1.9689   -0.0100 C.ar    1  LIG1        0.0462
     12 C           0.0881    2.7238    0.3252 C.ar    1  LIG1        0.0617
     13 C          -0.0885    4.1140    0.0004 C.ar    1  LIG1        0.1376
     14 C          -1.2983    4.3785   -0.5530 C.ar    1  LIG1        0.0189
     15 S          -2.2471    2.9455   -0.7077 S.2     1  LIG1       -0.0912
     16 H          -1.6833    5.3333   -0.8723 H       1  LIG1        0.0731
     17 S           1.5249    2.1042    1.1528 S.3     1  LIG1       -0.1380
     18 H           2.3298    3.0799    0.7228 H       1  LIG1        0.1072
     19 O           0.9262    4.9778    0.2689 O.3     1  LIG1       -0.5051
     20 H           0.6843    5.8779    0.0277 H       1  LIG1        0.2922
@<TRIPOS>BOND
     1    16    14    1
     2     9    10    1
     3     9     3    1
     4     8     7    1
     5    15    14   ar
     6    15    11   ar
     7    14    13   ar
     8     7     2    1
     9     3     2   ar
    10     3     4   ar
    11    11     4    1
    12    11    12   ar
    13    13    19    1
    14    13    12   ar
    15     2     1   ar
    16    20    19    1
    17     4     5   ar
    18    12    17    1
    19     1     5   ar
    20     1     6    1
    21    18    17    1
