@<TRIPOS>MOLECULE
mol_data/opt/m06hf/geoms/mol2/5gf5gf5gf-5gf-.out
 38 41 0 0 0
SMALL
GASTEIGER

@<TRIPOS>ATOM
      1 C          -2.0106   -1.9552   -0.3582 C.ar    1  LIG1       -0.0069
      2 C          -0.7017   -1.8567   -0.6987 C.ar    1  LIG1        0.0539
      3 C          -0.1927   -0.5203   -0.5054 C.ar    1  LIG1        0.1452
      4 C          -1.1339    0.3420   -0.0150 C.ar    1  LIG1        0.0696
      5 S          -2.6527   -0.4640    0.2218 S.2     1  LIG1       -0.0912
      6 H          -2.6338   -2.8341   -0.3975 H       1  LIG1        0.0706
      7 S           0.3020   -3.1674   -1.3322 S.3     1  LIG1       -0.1386
      8 H           1.4267   -2.4464   -1.2737 H       1  LIG1        0.1072
      9 O           1.0856   -0.2378   -0.8453 O.3     1  LIG1       -0.5045
     10 H           1.4687    0.4147   -0.2350 H       1  LIG1        0.2922
     11 C          -0.9774    1.7773    0.2242 C.ar    1  LIG1        0.0468
     12 C           0.0431    2.4164    0.8642 C.ar    1  LIG1        0.0623
     13 C          -0.1023    3.8471    0.8568 C.ar    1  LIG1        0.1458
     14 C          -1.2411    4.2599    0.2238 C.ar    1  LIG1        0.0702
     15 S          -2.1346    2.9102   -0.4020 S.2     1  LIG1       -0.0822
     16 S           1.3690    1.6054    1.7063 S.3     1  LIG1       -0.1380
     17 H           2.1817    2.6681    1.6655 H       1  LIG1        0.1072
     18 O           0.8254    4.6072    1.4780 O.3     1  LIG1       -0.5045
     19 H           0.8878    5.4838    1.0659 H       1  LIG1        0.2922
     20 C          -1.7283    5.6349    0.1028 C.ar    1  LIG1        0.0468
     21 C          -1.0380    6.7284   -0.3277 C.ar    1  LIG1        0.0623
     22 C          -1.8200    7.9344   -0.2843 C.ar    1  LIG1        0.1458
     23 C          -3.0958    7.7213    0.1572 C.ar    1  LIG1        0.0701
     24 S          -3.3583    6.0470    0.5339 S.2     1  LIG1       -0.0822
     25 S           0.6229    6.6914   -0.9349 S.3     1  LIG1       -0.1380
     26 H           0.8186    8.0061   -0.7789 H       1  LIG1        0.1072
     27 O          -1.2481    9.1123   -0.6228 O.3     1  LIG1       -0.5045
     28 H          -1.8760    9.6625   -1.1224 H       1  LIG1        0.2922
     29 C          -4.1423    8.7226    0.3746 C.ar    1  LIG1        0.0462
     30 C          -4.5351    9.7285   -0.4581 C.ar    1  LIG1        0.0617
     31 C          -5.5884   10.5291    0.1069 C.ar    1  LIG1        0.1376
     32 C          -5.9732   10.1071    1.3369 C.ar    1  LIG1        0.0189
     33 S          -5.0566    8.7380    1.8491 S.2     1  LIG1       -0.0912
     34 H          -6.7424   10.5233    1.9674 H       1  LIG1        0.0731
     35 S          -3.9164    9.9848   -2.0959 S.3     1  LIG1       -0.1380
     36 H          -4.1507   11.3023   -2.1032 H       1  LIG1        0.1072
     37 O          -6.0648   11.5742   -0.6184 O.3     1  LIG1       -0.5051
     38 H          -6.7926   12.0100   -0.1627 H       1  LIG1        0.2922
@<TRIPOS>BOND
     1    36    35    1
     2    35    30    1
     3     7     8    1
     4     7     2    1
     5    28    27    1
     6    25    26    1
     7    25    21    1
     8     9     3    1
     9     9    10    1
    10     2     3   ar
    11     2     1   ar
    12    27    22    1
    13    37    38    1
    14    37    31    1
    15     3     4   ar
    16    30    31   ar
    17    30    29   ar
    18    15    14   ar
    19    15    11   ar
    20     6     1    1
    21     1     5   ar
    22    21    22   ar
    23    21    20   ar
    24    22    23   ar
    25     4     5   ar
    26     4    11    1
    27    20    14    1
    28    20    24   ar
    29    31    32   ar
    30    23    29    1
    31    23    24   ar
    32    14    13   ar
    33    11    12   ar
    34    29    33   ar
    35    13    12   ar
    36    13    18    1
    37    12    16    1
    38    19    18    1
    39    32    33   ar
    40    32    34    1
    41    17    16    1
