@<TRIPOS>MOLECULE
mol_data/opt/m06hf/geoms/mol2/5gf5gf-5gf.out
 29 31 0 0 0
SMALL
GASTEIGER

@<TRIPOS>ATOM
      1 C          -1.8205   -1.7856    1.1467 C.ar    1  LIG1       -0.0069
      2 C          -0.8862   -1.8610    0.1663 C.ar    1  LIG1        0.0539
      3 C          -0.4278   -0.5563   -0.2457 C.ar    1  LIG1        0.1452
      4 C          -1.0297    0.4593    0.4439 C.ar    1  LIG1        0.0696
      5 S          -2.1631   -0.1602    1.6041 S.2     1  LIG1       -0.0912
      6 H          -2.3154   -2.6057    1.6413 H       1  LIG1        0.0706
      7 S          -0.3091   -3.3544   -0.5830 S.3     1  LIG1       -0.1386
      8 H           0.7984   -2.7899   -1.0752 H       1  LIG1        0.1072
      9 O           0.4851   -0.4572   -1.2371 O.3     1  LIG1       -0.5045
     10 H           1.0475    0.3244   -1.1131 H       1  LIG1        0.2922
     11 C          -0.8418    1.8997    0.2567 C.ar    1  LIG1        0.0468
     12 C           0.3291    2.5916    0.1623 C.ar    1  LIG1        0.0623
     13 C           0.1311    4.0020   -0.0337 C.ar    1  LIG1        0.1458
     14 C          -1.1894    4.3534   -0.0561 C.ar    1  LIG1        0.0701
     15 S          -2.2085    2.9623    0.1483 S.2     1  LIG1       -0.0822
     16 S           1.9395    1.8826    0.3374 S.3     1  LIG1       -0.1380
     17 H           2.5572    2.8705   -0.3201 H       1  LIG1        0.1072
     18 O           1.2026    4.8086   -0.2101 O.3     1  LIG1       -0.5045
     19 H           1.0771    5.6471    0.2686 H       1  LIG1        0.2922
     20 C          -1.7457    5.6902   -0.2783 C.ar    1  LIG1        0.0462
     21 C          -1.3659    6.8645    0.3022 C.ar    1  LIG1        0.0617
     22 C          -2.1149    7.9892   -0.1896 C.ar    1  LIG1        0.1376
     23 C          -3.0470    7.6416   -1.1120 C.ar    1  LIG1        0.0189
     24 S          -3.0283    5.9432   -1.4200 S.2     1  LIG1       -0.0912
     25 H          -3.7439    8.2869   -1.6223 H       1  LIG1        0.0731
     26 S          -0.1658    7.0011    1.5940 S.3     1  LIG1       -0.1380
     27 H           0.1952    8.2522    1.2904 H       1  LIG1        0.1072
     28 O          -1.8238    9.2233    0.2983 O.3     1  LIG1       -0.5051
     29 H          -2.3773    9.8962   -0.1116 H       1  LIG1        0.2922
@<TRIPOS>BOND
     1    25    23    1
     2    24    23   ar
     3    24    20   ar
     4     9    10    1
     5     9     3    1
     6    23    22   ar
     7     8     7    1
     8     7     2    1
     9    17    16    1
    10    20    14    1
    11    20    21   ar
    12     3     2   ar
    13     3     4   ar
    14    18    13    1
    15    18    19    1
    16    22    28    1
    17    22    21   ar
    18    29    28    1
    19    14    13   ar
    20    14    15   ar
    21    13    12   ar
    22    15    11   ar
    23    12    11   ar
    24    12    16    1
    25     2     1   ar
    26    11     4    1
    27    21    26    1
    28     4     5   ar
    29     1     5   ar
    30     1     6    1
    31    27    26    1
