@<TRIPOS>MOLECULE
mol_data/opt/m06hf/geoms/mol2/5gf5gf5gf.out
 29 31 0 0 0
SMALL
GASTEIGER

@<TRIPOS>ATOM
      1 C          -2.0246   -1.9021    0.2344 C.ar    1  LIG1       -0.0069
      2 C          -0.8073   -1.8249   -0.3592 C.ar    1  LIG1        0.0539
      3 C          -0.2921   -0.4775   -0.3578 C.ar    1  LIG1        0.1452
      4 C          -1.1357    0.4140    0.2455 C.ar    1  LIG1        0.0696
      5 S          -2.5691   -0.3756    0.8208 S.2     1  LIG1       -0.0912
      6 H          -2.6281   -2.7843    0.3757 H       1  LIG1        0.0706
      7 S           0.0615   -3.1748   -1.0972 S.3     1  LIG1       -0.1386
      8 H           1.1897   -2.4763   -1.2549 H       1  LIG1        0.1072
      9 O           0.8931   -0.2151   -0.9526 O.3     1  LIG1       -0.5045
     10 H           1.3562    0.5071   -0.4963 H       1  LIG1        0.2922
     11 C          -0.9596    1.8635    0.3491 C.ar    1  LIG1        0.0468
     12 C           0.1503    2.5514    0.7404 C.ar    1  LIG1        0.0623
     13 C          -0.0214    3.9773    0.6625 C.ar    1  LIG1        0.1458
     14 C          -1.2646    4.3385    0.2248 C.ar    1  LIG1        0.0701
     15 S          -2.2316    2.9415   -0.1321 S.2     1  LIG1       -0.0822
     16 S           1.6320    1.8141    1.3671 S.3     1  LIG1       -0.1380
     17 H           2.3888    2.8857    1.0999 H       1  LIG1        0.1072
     18 O           0.9893    4.7863    1.0493 O.3     1  LIG1       -0.5045
     19 H           0.9706    5.6202    0.5519 H       1  LIG1        0.2922
     20 C          -1.8034    5.6963    0.1178 C.ar    1  LIG1        0.0462
     21 C          -1.2276    6.7851   -0.4680 C.ar    1  LIG1        0.0617
     22 C          -2.0388    7.9668   -0.3448 C.ar    1  LIG1        0.1376
     23 C          -3.2046    7.7431    0.3111 C.ar    1  LIG1        0.0189
     24 S          -3.3407    6.0977    0.8141 S.2     1  LIG1       -0.0912
     25 H          -3.9895    8.4513    0.5228 H       1  LIG1        0.0731
     26 S           0.3046    6.7568   -1.3540 S.3     1  LIG1       -0.1380
     27 H           0.5250    8.0705   -1.2303 H       1  LIG1        0.1072
     28 O          -1.5745    9.1292   -0.8750 O.3     1  LIG1       -0.5051
     29 H          -2.1871    9.8534   -0.7096 H       1  LIG1        0.2922
@<TRIPOS>BOND
     1    26    27    1
     2    26    21    1
     3     8     7    1
     4     7     2    1
     5     9    10    1
     6     9     3    1
     7    28    29    1
     8    28    22    1
     9    21    22   ar
    10    21    20   ar
    11     2     3   ar
    12     2     1   ar
    13     3     4   ar
    14    22    23   ar
    15    15    14   ar
    16    15    11   ar
    17    20    14    1
    18    20    24   ar
    19    14    13   ar
    20     1     6    1
    21     1     5   ar
    22     4    11    1
    23     4     5   ar
    24    23    25    1
    25    23    24   ar
    26    11    12   ar
    27    19    18    1
    28    13    12   ar
    29    13    18    1
    30    12    16    1
    31    17    16    1
