@<TRIPOS>MOLECULE
mol_data/opt/m06hf/geoms/mol2/5gf5gf-5gf5gf-.out
 38 41 0 0 0
SMALL
GASTEIGER

@<TRIPOS>ATOM
      1 C          -1.4575   -1.7003    1.7783 C.ar    1  LIG1       -0.0069
      2 C          -0.9403   -1.8502    0.5341 C.ar    1  LIG1        0.0539
      3 C          -0.5805   -0.5842   -0.0573 C.ar    1  LIG1        0.1452
      4 C          -0.8293    0.4770    0.7684 C.ar    1  LIG1        0.0696
      5 S          -1.5010   -0.0517    2.2791 S.2     1  LIG1       -0.0912
      6 H          -1.8031   -2.4771    2.4411 H       1  LIG1        0.0706
      7 S          -0.7326   -3.3909   -0.3067 S.3     1  LIG1       -0.1386
      8 H          -0.1852   -2.8328   -1.3917 H       1  LIG1        0.1072
      9 O          -0.1031   -0.5516   -1.3222 O.3     1  LIG1       -0.5045
     10 H           0.5419    0.1663   -1.4333 H       1  LIG1        0.2922
     11 C          -0.6539    1.8989    0.4669 C.ar    1  LIG1        0.0468
     12 C           0.4266    2.5171   -0.0891 C.ar    1  LIG1        0.0623
     13 C           0.2296    3.9298   -0.2739 C.ar    1  LIG1        0.1458
     14 C          -0.9882    4.3572    0.1766 C.ar    1  LIG1        0.0702
     15 S          -1.9157    3.0357    0.8174 S.2     1  LIG1       -0.0822
     16 S           1.9521    1.7161   -0.4908 S.3     1  LIG1       -0.1380
     17 H           2.3344    2.6569   -1.3610 H       1  LIG1        0.1072
     18 O           1.1915    4.6583   -0.8827 O.3     1  LIG1       -0.5045
     19 H           1.2601    5.5426   -0.4829 H       1  LIG1        0.2922
     20 C          -1.5423    5.7107    0.1077 C.ar    1  LIG1        0.0468
     21 C          -0.9376    6.8897    0.4302 C.ar    1  LIG1        0.0623
     22 C          -1.7862    8.0304    0.2157 C.ar    1  LIG1        0.1458
     23 C          -3.0292    7.6877   -0.2375 C.ar    1  LIG1        0.0701
     24 S          -3.1737    5.9663   -0.4233 S.2     1  LIG1       -0.0822
     25 S           0.6792    7.0378    1.1296 S.3     1  LIG1       -0.1380
     26 H           0.8787    8.2844    0.6858 H       1  LIG1        0.1072
     27 O          -1.2938    9.2713    0.4276 O.3     1  LIG1       -0.5045
     28 H          -1.9746    9.8533    0.8066 H       1  LIG1        0.2922
     29 C          -4.1286    8.5893   -0.5873 C.ar    1  LIG1        0.0462
     30 C          -4.6065    9.6442    0.1316 C.ar    1  LIG1        0.0617
     31 C          -5.6901   10.3153   -0.5353 C.ar    1  LIG1        0.1376
     32 C          -6.0146    9.7461   -1.7232 C.ar    1  LIG1        0.0189
     33 S          -5.0009    8.3941   -2.0726 S.2     1  LIG1       -0.0912
     34 H          -6.7908   10.0451   -2.4090 H       1  LIG1        0.0731
     35 S          -4.0472   10.0993    1.7473 S.3     1  LIG1       -0.1380
     36 H          -4.4610   11.3677    1.6520 H       1  LIG1        0.1072
     37 O          -6.2492   11.3971    0.0673 O.3     1  LIG1       -0.5051
     38 H          -6.9621   11.7627   -0.4669 H       1  LIG1        0.2922
@<TRIPOS>BOND
     1    34    32    1
     2    33    32   ar
     3    33    29   ar
     4    32    31   ar
     5    10     9    1
     6     8     7    1
     7    17    16    1
     8     9     3    1
     9    18    19    1
    10    18    13    1
    11    29    23    1
    12    29    30   ar
    13    31    37    1
    14    31    30   ar
    15    16    12    1
    16    38    37    1
    17    24    23   ar
    18    24    20   ar
    19     7     2    1
    20    13    12   ar
    21    13    14   ar
    22    23    22   ar
    23    12    11   ar
    24     3     2   ar
    25     3     4   ar
    26    20    14    1
    27    20    21   ar
    28    30    35    1
    29    14    15   ar
    30    22    27    1
    31    22    21   ar
    32    27    28    1
    33    21    25    1
    34    11     4    1
    35    11    15   ar
    36     2     1   ar
    37    26    25    1
    38     4     5   ar
    39    36    35    1
    40     1     5   ar
    41     1     6    1
