@<TRIPOS>MOLECULE
mol_data/opt/m06hf/geoms/mol2/5gf5gf5gf-5gf.out
 38 41 0 0 0
SMALL
GASTEIGER

@<TRIPOS>ATOM
      1 C          -2.0064   -1.9547   -0.3683 C.ar    1  LIG1       -0.0069
      2 C          -0.6967   -1.8548   -0.7056 C.ar    1  LIG1        0.0539
      3 C          -0.1889   -0.5185   -0.5086 C.ar    1  LIG1        0.1452
      4 C          -1.1317    0.3424   -0.0188 C.ar    1  LIG1        0.0696
      5 S          -2.6506   -0.4648    0.2131 S.2     1  LIG1       -0.0912
      6 H          -2.6290   -2.8337   -0.4107 H       1  LIG1        0.0706
      7 S           0.3090   -3.1638   -1.3393 S.3     1  LIG1       -0.1386
      8 H           1.4333   -2.4424   -1.2768 H       1  LIG1        0.1072
      9 O           1.0900   -0.2347   -0.8451 O.3     1  LIG1       -0.5045
     10 H           1.4714    0.4168   -0.2327 H       1  LIG1        0.2922
     11 C          -0.9764    1.7773    0.2235 C.ar    1  LIG1        0.0468
     12 C           0.0423    2.4157    0.8670 C.ar    1  LIG1        0.0623
     13 C          -0.1037    3.8463    0.8620 C.ar    1  LIG1        0.1458
     14 C          -1.2413    4.2598    0.2271 C.ar    1  LIG1        0.0702
     15 S          -2.1327    2.9108   -0.4032 S.2     1  LIG1       -0.0822
     16 S           1.3667    1.6037    1.7106 S.3     1  LIG1       -0.1380
     17 H           2.1790    2.6669    1.6736 H       1  LIG1        0.1072
     18 O           0.8221    4.6057    1.4867 O.3     1  LIG1       -0.5045
     19 H           0.8850    5.4831    1.0765 H       1  LIG1        0.2922
     20 C          -1.7290    5.6347    0.1076 C.ar    1  LIG1        0.0468
     21 C          -1.0382    6.7294   -0.3192 C.ar    1  LIG1        0.0623
     22 C          -1.8210    7.9349   -0.2753 C.ar    1  LIG1        0.1458
     23 C          -3.0977    7.7204    0.1629 C.ar    1  LIG1        0.0701
     24 S          -3.3602    6.0452    0.5358 S.2     1  LIG1       -0.0822
     25 S           0.6241    6.6945   -0.9225 S.3     1  LIG1       -0.1380
     26 H           0.8186    8.0090   -0.7637 H       1  LIG1        0.1072
     27 O          -1.2489    9.1138   -0.6102 O.3     1  LIG1       -0.5045
     28 H          -1.8759    9.6645   -1.1104 H       1  LIG1        0.2922
     29 C          -4.1451    8.7207    0.3797 C.ar    1  LIG1        0.0462
     30 C          -4.5366    9.7279   -0.4520 C.ar    1  LIG1        0.0617
     31 C          -5.5916   10.5270    0.1120 C.ar    1  LIG1        0.1376
     32 C          -5.9791   10.1025    1.3403 C.ar    1  LIG1        0.0189
     33 S          -5.0628    8.7329    1.8522 S.2     1  LIG1       -0.0912
     34 H          -6.7499   10.5170    1.9698 H       1  LIG1        0.0731
     35 S          -3.9142    9.9876   -2.0879 S.3     1  LIG1       -0.1380
     36 H          -4.1494   11.3049   -2.0934 H       1  LIG1        0.1072
     37 O          -6.0668   11.5731   -0.6125 O.3     1  LIG1       -0.5051
     38 H          -6.7960   12.0077   -0.1577 H       1  LIG1        0.2922
@<TRIPOS>BOND
     1    36    35    1
     2    35    30    1
     3     7     8    1
     4     7     2    1
     5    28    27    1
     6    25    26    1
     7    25    21    1
     8     9     3    1
     9     9    10    1
    10     2     3   ar
    11     2     1   ar
    12    37    38    1
    13    37    31    1
    14    27    22    1
    15     3     4   ar
    16    30    31   ar
    17    30    29   ar
    18     6     1    1
    19    15    11   ar
    20    15    14   ar
    21     1     5   ar
    22    21    22   ar
    23    21    20   ar
    24    22    23   ar
    25     4     5   ar
    26     4    11    1
    27    20    14    1
    28    20    24   ar
    29    31    32   ar
    30    23    29    1
    31    23    24   ar
    32    11    12   ar
    33    14    13   ar
    34    29    33   ar
    35    13    12   ar
    36    13    18    1
    37    12    16    1
    38    19    18    1
    39    32    33   ar
    40    32    34    1
    41    17    16    1
