@<TRIPOS>MOLECULE
mol_data/opt/m06hf/geoms/mol2/5gf5gf-5gf-5gf-.out
 38 41 0 0 0
SMALL
GASTEIGER

@<TRIPOS>ATOM
      1 C          -1.4973   -1.8952    1.2688 C.ar    1  LIG1       -0.0069
      2 C          -0.8576   -1.8983    0.0737 C.ar    1  LIG1        0.0539
      3 C          -0.4824   -0.5681   -0.3409 C.ar    1  LIG1        0.1452
      4 C          -0.8439    0.3929    0.5620 C.ar    1  LIG1        0.0696
      5 S          -1.6419   -0.3124    1.9347 S.2     1  LIG1       -0.0912
      6 H          -1.8797   -2.7467    1.8083 H       1  LIG1        0.0706
      7 S          -0.5147   -3.3310   -0.9035 S.3     1  LIG1       -0.1386
      8 H           0.1124   -2.6394   -1.8618 H       1  LIG1        0.1072
      9 O           0.1204   -0.3848   -1.5376 O.3     1  LIG1       -0.5045
     10 H           0.7782    0.3297   -1.4804 H       1  LIG1        0.2922
     11 C          -0.6909    1.8425    0.4258 C.ar    1  LIG1        0.0468
     12 C           0.4058    2.5467    0.0236 C.ar    1  LIG1        0.0623
     13 C           0.1727    3.9644   -0.0298 C.ar    1  LIG1        0.1458
     14 C          -1.0908    4.3081    0.3640 C.ar    1  LIG1        0.0702
     15 S          -2.0175    2.9009    0.7867 S.2     1  LIG1       -0.0822
     16 S           1.9936    1.8455   -0.3232 S.3     1  LIG1       -0.1380
     17 H           2.3502    2.8079   -1.1799 H       1  LIG1        0.1072
     18 O           1.1499    4.7797   -0.4835 O.3     1  LIG1       -0.5045
     19 H           1.1552    5.6199    0.0083 H       1  LIG1        0.2922
     20 C          -1.6749    5.6493    0.3932 C.ar    1  LIG1        0.0468
     21 C          -1.1171    6.7971    0.8729 C.ar    1  LIG1        0.0623
     22 C          -1.9638    7.9460    0.6951 C.ar    1  LIG1        0.1458
     23 C          -3.1531    7.6399    0.0957 C.ar    1  LIG1        0.0701
     24 S          -3.2389    5.9506   -0.2938 S.2     1  LIG1       -0.0822
     25 S           0.4301    6.9001    1.7229 S.3     1  LIG1       -0.1380
     26 H           0.6041    8.1947    1.4367 H       1  LIG1        0.1072
     27 O          -1.5491    9.1469    1.1516 O.3     1  LIG1       -0.5045
     28 H          -1.8981    9.8594    0.5889 H       1  LIG1        0.2922
     29 C          -4.2958    8.5300   -0.1286 C.ar    1  LIG1        0.0462
     30 C          -4.3084    9.7966   -0.6351 C.ar    1  LIG1        0.0617
     31 C          -5.6300   10.3646   -0.6610 C.ar    1  LIG1        0.1376
     32 C          -6.5798    9.5186   -0.1917 C.ar    1  LIG1        0.0189
     33 S          -5.8937    8.0169    0.3091 S.2     1  LIG1       -0.0912
     34 H          -7.6412    9.6912   -0.1169 H       1  LIG1        0.0731
     35 S          -2.8980   10.6451   -1.2882 S.3     1  LIG1       -0.1380
     36 H          -3.3171   11.8627   -0.9276 H       1  LIG1        0.1072
     37 O          -5.7791   11.6307   -1.1300 O.3     1  LIG1       -0.5051
     38 H          -6.7008   11.9070   -1.0897 H       1  LIG1        0.2922
@<TRIPOS>BOND
     1     8     7    1
     2     9    10    1
     3     9     3    1
     4    35    36    1
     5    35    30    1
     6    17    16    1
     7    37    38    1
     8    37    31    1
     9     7     2    1
    10    31    30   ar
    11    31    32   ar
    12    30    29   ar
    13    18    13    1
    14    18    19    1
    15     3     2   ar
    16     3     4   ar
    17    16    12    1
    18    24    23   ar
    19    24    20   ar
    20    32    34    1
    21    32    33   ar
    22    29    23    1
    23    29    33   ar
    24    13    12   ar
    25    13    14   ar
    26    12    11   ar
    27     2     1   ar
    28    23    22   ar
    29    14    20    1
    30    14    15   ar
    31    20    21   ar
    32    11     4    1
    33    11    15   ar
    34     4     5   ar
    35    28    27    1
    36    22    21   ar
    37    22    27    1
    38    21    25    1
    39     1     6    1
    40     1     5   ar
    41    26    25    1
