@<TRIPOS>MOLECULE
mol_data/opt/m06hf/geoms/mol2/5gf5gf5gf5gf-.out
 38 41 0 0 0
SMALL
GASTEIGER

@<TRIPOS>ATOM
      1 C          -2.0031   -1.9582    0.2836 C.ar    1  LIG1       -0.0069
      2 C          -0.7403   -1.9245   -0.2092 C.ar    1  LIG1        0.0539
      3 C          -0.2143   -0.5818   -0.2555 C.ar    1  LIG1        0.1452
      4 C          -1.0961    0.3503    0.2160 C.ar    1  LIG1        0.0696
      5 S          -2.5766   -0.3949    0.7300 S.2     1  LIG1       -0.0912
      6 H          -2.6276   -2.8252    0.4270 H       1  LIG1        0.0706
      7 S           0.1886   -3.3326   -0.7371 S.3     1  LIG1       -0.1386
      8 H           1.2432   -2.6109   -1.1325 H       1  LIG1        0.1072
      9 O           1.0156   -0.3670   -0.7764 O.3     1  LIG1       -0.5045
     10 H           1.4638    0.3663   -0.3238 H       1  LIG1        0.2922
     11 C          -0.9178    1.8025    0.2633 C.ar    1  LIG1        0.0468
     12 C           0.1575    2.5017    0.7255 C.ar    1  LIG1        0.0623
     13 C          -0.0007    3.9249    0.5908 C.ar    1  LIG1        0.1458
     14 C          -1.2018    4.2731    0.0363 C.ar    1  LIG1        0.0702
     15 S          -2.1384    2.8643   -0.3604 S.2     1  LIG1       -0.0822
     16 S           1.5740    1.7754    1.4961 S.3     1  LIG1       -0.1380
     17 H           2.3465    2.8506    1.3130 H       1  LIG1        0.1072
     18 O           0.9733    4.7431    1.0456 O.3     1  LIG1       -0.5045
     19 H           1.0231    5.5533    0.5100 H       1  LIG1        0.2922
     20 C          -1.7365    5.6217   -0.1559 C.ar    1  LIG1        0.0468
     21 C          -1.1062    6.7144   -0.6734 C.ar    1  LIG1        0.0623
     22 C          -1.9322    7.8920   -0.6689 C.ar    1  LIG1        0.1458
     23 C          -3.1808    7.6597   -0.1638 C.ar    1  LIG1        0.0701
     24 S          -3.3503    6.0105    0.3522 S.2     1  LIG1       -0.0822
     25 S           0.5124    6.7020   -1.3837 S.3     1  LIG1       -0.1380
     26 H           0.7031    8.0184   -1.2319 H       1  LIG1        0.1072
     27 O          -1.4423    9.0433   -1.1772 O.3     1  LIG1       -0.5045
     28 H          -1.8082    9.8084   -0.6998 H       1  LIG1        0.2922
     29 C          -4.3112    8.5903   -0.1163 C.ar    1  LIG1        0.0462
     30 C          -4.3262    9.8890    0.2994 C.ar    1  LIG1        0.0617
     31 C          -5.6219   10.4969    0.1544 C.ar    1  LIG1        0.1376
     32 C          -6.5513    9.6482   -0.3497 C.ar    1  LIG1        0.0189
     33 S          -5.8760    8.0939   -0.6750 S.2     1  LIG1       -0.0912
     34 H          -7.5931    9.8466   -0.5428 H       1  LIG1        0.0731
     35 S          -2.9524   10.7317    1.0315 S.3     1  LIG1       -0.1380
     36 H          -3.3242   11.9458    0.6110 H       1  LIG1        0.1072
     37 O          -5.7704   11.7976    0.5175 O.3     1  LIG1       -0.5051
     38 H          -6.6795   12.0889    0.3905 H       1  LIG1        0.2922
@<TRIPOS>BOND
     1    25    26    1
     2    25    21    1
     3    27    28    1
     4    27    22    1
     5     8     7    1
     6     9    10    1
     7     9     3    1
     8     7     2    1
     9    33    32   ar
    10    33    29   ar
    11    21    22   ar
    12    21    20   ar
    13    22    23   ar
    14    34    32    1
    15    15    14   ar
    16    15    11   ar
    17    32    31   ar
    18     3     2   ar
    19     3     4   ar
    20     2     1   ar
    21    23    29    1
    22    23    24   ar
    23    20    14    1
    24    20    24   ar
    25    29    30   ar
    26    14    13   ar
    27    31    30   ar
    28    31    37    1
    29     4    11    1
    30     4     5   ar
    31    11    12   ar
    32     1     6    1
    33     1     5   ar
    34    30    35    1
    35    38    37    1
    36    19    18    1
    37    13    12   ar
    38    13    18    1
    39    36    35    1
    40    12    16    1
    41    17    16    1
