@<TRIPOS>MOLECULE
mol_data/opt/m06hf/geoms/mol2/5gf5gf5gf5gf.out
 38 41 0 0 0
SMALL
GASTEIGER

@<TRIPOS>ATOM
      1 C          -2.0030   -1.9635    0.2398 C.ar    1  LIG1       -0.0069
      2 C          -0.7360   -1.9205   -0.2417 C.ar    1  LIG1        0.0539
      3 C          -0.2102   -0.5770   -0.2585 C.ar    1  LIG1        0.1452
      4 C          -1.0963    0.3458    0.2231 C.ar    1  LIG1        0.0696
      5 S          -2.5802   -0.4093    0.7116 S.2     1  LIG1       -0.0912
      6 H          -2.6283   -2.8333    0.3618 H       1  LIG1        0.0706
      7 S           0.1968   -3.3192   -0.7864 S.3     1  LIG1       -0.1386
      8 H           1.2520   -2.5911   -1.1682 H       1  LIG1        0.1072
      9 O           1.0233   -0.3516   -0.7660 O.3     1  LIG1       -0.5045
     10 H           1.4666    0.3740   -0.2964 H       1  LIG1        0.2922
     11 C          -0.9221    1.7978    0.2892 C.ar    1  LIG1        0.0468
     12 C           0.1477    2.4956    0.7663 C.ar    1  LIG1        0.0623
     13 C          -0.0130    3.9195    0.6414 C.ar    1  LIG1        0.1458
     14 C          -1.2099    4.2690    0.0795 C.ar    1  LIG1        0.0702
     15 S          -2.1404    2.8615   -0.3353 S.2     1  LIG1       -0.0822
     16 S           1.5601    1.7651    1.5409 S.3     1  LIG1       -0.1380
     17 H           2.3346    2.8404    1.3670 H       1  LIG1        0.1072
     18 O           0.9569    4.7353    1.1099 O.3     1  LIG1       -0.5045
     19 H           0.9934    5.5632    0.6028 H       1  LIG1        0.2922
     20 C          -1.7411    5.6178   -0.1197 C.ar    1  LIG1        0.0468
     21 C          -1.1087    6.7005   -0.6546 C.ar    1  LIG1        0.0623
     22 C          -1.9325    7.8801   -0.6650 C.ar    1  LIG1        0.1458
     23 C          -3.1797    7.6583   -0.1517 C.ar    1  LIG1        0.0701
     24 S          -3.3506    6.0181    0.3914 S.2     1  LIG1       -0.0822
     25 S           0.5134    6.6752   -1.3563 S.3     1  LIG1       -0.1380
     26 H           0.6573    8.0039   -1.3142 H       1  LIG1        0.1072
     27 O          -1.4445    9.0227   -1.1959 O.3     1  LIG1       -0.5045
     28 H          -1.7975    9.7964   -0.7223 H       1  LIG1        0.2922
     29 C          -4.3067    8.5933   -0.1108 C.ar    1  LIG1        0.0462
     30 C          -4.3142    9.8983    0.2851 C.ar    1  LIG1        0.0617
     31 C          -5.6089   10.5085    0.1410 C.ar    1  LIG1        0.1376
     32 C          -6.5453    9.6552   -0.3418 C.ar    1  LIG1        0.0189
     33 S          -5.8781    8.0938   -0.6487 S.2     1  LIG1       -0.0912
     34 H          -7.5878    9.8543   -0.5301 H       1  LIG1        0.0731
     35 S          -2.9321   10.7486    0.9922 S.3     1  LIG1       -0.1380
     36 H          -3.3068   11.9581    0.5603 H       1  LIG1        0.1072
     37 O          -5.7495   11.8154    0.4846 O.3     1  LIG1       -0.5051
     38 H          -6.6582   12.1087    0.3596 H       1  LIG1        0.2922
@<TRIPOS>BOND
     1    25    26    1
     2    25    21    1
     3    27    28    1
     4    27    22    1
     5     8     7    1
     6     7     2    1
     7     9    10    1
     8     9     3    1
     9    22    21   ar
    10    22    23   ar
    11    21    20   ar
    12    33    32   ar
    13    33    29   ar
    14    34    32    1
    15    32    31   ar
    16    15    14   ar
    17    15    11   ar
    18     3     2   ar
    19     3     4   ar
    20     2     1   ar
    21    23    29    1
    22    23    24   ar
    23    20    14    1
    24    20    24   ar
    25    29    30   ar
    26    14    13   ar
    27    31    30   ar
    28    31    37    1
    29     4    11    1
    30     4     5   ar
    31     1     6    1
    32     1     5   ar
    33    30    35    1
    34    11    12   ar
    35    38    37    1
    36    36    35    1
    37    19    18    1
    38    13    12   ar
    39    13    18    1
    40    12    16    1
    41    17    16    1
