@<TRIPOS>MOLECULE
mol_data/opt/m06hf/geoms/mol2/5gf5gf.out
 20 21 0 0 0
SMALL
GASTEIGER

@<TRIPOS>ATOM
      1 C          -2.0589   -1.7570    0.5580 C.ar    1  LIG1       -0.0069
      2 C          -0.8069   -1.7875    0.0369 C.ar    1  LIG1        0.0539
      3 C          -0.2927   -0.4623   -0.2100 C.ar    1  LIG1        0.1452
      4 C          -1.1715    0.5233    0.1426 C.ar    1  LIG1        0.0695
      5 S          -2.6362   -0.1486    0.7867 S.2     1  LIG1       -0.0912
      6 H          -2.6716   -2.5986    0.8382 H       1  LIG1        0.0706
      7 S           0.1135   -3.2524   -0.3251 S.3     1  LIG1       -0.1386
      8 H           1.2007   -2.5830   -0.7222 H       1  LIG1        0.1072
      9 O           0.9274   -0.3098   -0.7763 O.3     1  LIG1       -0.5045
     10 H           1.3832    0.4621   -0.4006 H       1  LIG1        0.2922
     11 C          -0.9965    1.9687   -0.0186 C.ar    1  LIG1        0.0462
     12 C           0.0840    2.7269    0.3224 C.ar    1  LIG1        0.0617
     13 C          -0.0888    4.1139   -0.0177 C.ar    1  LIG1        0.1376
     14 C          -1.2918    4.3729   -0.5882 C.ar    1  LIG1        0.0189
     15 S          -2.2386    2.9383   -0.7406 S.2     1  LIG1       -0.0912
     16 H          -1.6730    5.3245   -0.9213 H       1  LIG1        0.0731
     17 S           1.5107    2.1155    1.1732 S.3     1  LIG1       -0.1380
     18 H           2.3207    3.0873    0.7440 H       1  LIG1        0.1072
     19 O           0.9227    4.9804    0.2547 O.3     1  LIG1       -0.5051
     20 H           0.6836    5.8782    0.0021 H       1  LIG1        0.2922
@<TRIPOS>BOND
     1    16    14    1
     2     9    10    1
     3     9     3    1
     4    15    14   ar
     5    15    11   ar
     6     8     7    1
     7    14    13   ar
     8     7     2    1
     9     3     2   ar
    10     3     4   ar
    11    11     4    1
    12    11    12   ar
    13    13    19    1
    14    13    12   ar
    15    20    19    1
    16     2     1   ar
    17     4     5   ar
    18    12    17    1
    19     1     5   ar
    20     1     6    1
    21    18    17    1
