@<TRIPOS>MOLECULE
mol_data/opt/m06hf/geoms/mol2/5gf5gf5gf-.out
 29 31 0 0 0
SMALL
GASTEIGER

@<TRIPOS>ATOM
      1 C          -2.0198   -1.9033    0.2364 C.ar    1  LIG1       -0.0069
      2 C          -0.8017   -1.8249   -0.3552 C.ar    1  LIG1        0.0539
      3 C          -0.2878   -0.4769   -0.3529 C.ar    1  LIG1        0.1452
      4 C          -1.1332    0.4137    0.2492 C.ar    1  LIG1        0.0696
      5 S          -2.5667   -0.3774    0.8221 S.2     1  LIG1       -0.0912
      6 H          -2.6227   -2.7861    0.3768 H       1  LIG1        0.0706
      7 S           0.0697   -3.1739   -1.0919 S.3     1  LIG1       -0.1386
      8 H           1.1973   -2.4743   -1.2478 H       1  LIG1        0.1072
      9 O           0.8981   -0.2134   -0.9458 O.3     1  LIG1       -0.5045
     10 H           1.3597    0.5093   -0.4888 H       1  LIG1        0.2922
     11 C          -0.9587    1.8633    0.3531 C.ar    1  LIG1        0.0468
     12 C           0.1499    2.5524    0.7461 C.ar    1  LIG1        0.0623
     13 C          -0.0232    3.9781    0.6680 C.ar    1  LIG1        0.1458
     14 C          -1.2661    4.3380    0.2284 C.ar    1  LIG1        0.0701
     15 S          -2.2310    2.9401   -0.1301 S.2     1  LIG1       -0.0822
     16 S           1.6314    1.8165    1.3751 S.3     1  LIG1       -0.1380
     17 H           2.3876    2.8888    1.1087 H       1  LIG1        0.1072
     18 O           0.9861    4.7881    1.0564 O.3     1  LIG1       -0.5045
     19 H           0.9675    5.6220    0.5590 H       1  LIG1        0.2922
     20 C          -1.8061    5.6953    0.1206 C.ar    1  LIG1        0.0462
     21 C          -1.2305    6.7847   -0.4642 C.ar    1  LIG1        0.0617
     22 C          -2.0431    7.9655   -0.3423 C.ar    1  LIG1        0.1376
     23 C          -3.2097    7.7406    0.3118 C.ar    1  LIG1        0.0189
     24 S          -3.3448    6.0951    0.8147 S.2     1  LIG1       -0.0912
     25 H          -3.9957    8.4480    0.5223 H       1  LIG1        0.0731
     26 S           0.3031    6.7581   -1.3479 S.3     1  LIG1       -0.1380
     27 H           0.5220    8.0719   -1.2239 H       1  LIG1        0.1072
     28 O          -1.5793    9.1284   -0.8718 O.3     1  LIG1       -0.5051
     29 H          -2.1929    9.8520   -0.7074 H       1  LIG1        0.2922
@<TRIPOS>BOND
     1    26    27    1
     2    26    21    1
     3     8     7    1
     4     7     2    1
     5     9    10    1
     6     9     3    1
     7    28    29    1
     8    28    22    1
     9    21    22   ar
    10    21    20   ar
    11     2     3   ar
    12     2     1   ar
    13     3     4   ar
    14    22    23   ar
    15    15    14   ar
    16    15    11   ar
    17    20    14    1
    18    20    24   ar
    19    14    13   ar
    20     1     6    1
    21     1     5   ar
    22     4    11    1
    23     4     5   ar
    24    23    25    1
    25    23    24   ar
    26    11    12   ar
    27    19    18    1
    28    13    12   ar
    29    13    18    1
    30    12    16    1
    31    17    16    1
