@<TRIPOS>MOLECULE
mol_data/opt/m06hf/geoms/mol2/5gf5gf-5gf-.out
 29 31 0 0 0
SMALL
GASTEIGER

@<TRIPOS>ATOM
      1 C          -1.8450   -1.7942    1.0895 C.ar    1  LIG1       -0.0069
      2 C          -0.8868   -1.8621    0.1319 C.ar    1  LIG1        0.0539
      3 C          -0.4194   -0.5542   -0.2595 C.ar    1  LIG1        0.1452
      4 C          -1.0387    0.4561    0.4223 C.ar    1  LIG1        0.0696
      5 S          -2.1998   -0.1721    1.5498 S.2     1  LIG1       -0.0912
      6 H          -2.3514   -2.6180    1.5659 H       1  LIG1        0.0706
      7 S          -0.2903   -3.3498   -0.6137 S.3     1  LIG1       -0.1386
      8 H           0.8283   -2.7810   -1.0750 H       1  LIG1        0.1072
      9 O           0.5174   -0.4476   -1.2277 O.3     1  LIG1       -0.5045
     10 H           1.0764    0.3332   -1.0841 H       1  LIG1        0.2922
     11 C          -0.8472    1.8979    0.2498 C.ar    1  LIG1        0.0468
     12 C           0.3252    2.5910    0.1889 C.ar    1  LIG1        0.0623
     13 C           0.1311    4.0027   -0.0020 C.ar    1  LIG1        0.1458
     14 C          -1.1887    4.3535   -0.0543 C.ar    1  LIG1        0.0701
     15 S          -2.2115    2.9606    0.1151 S.2     1  LIG1       -0.0822
     16 S           1.9313    1.8816    0.3985 S.3     1  LIG1       -0.1380
     17 H           2.5643    2.8745   -0.2365 H       1  LIG1        0.1072
     18 O           1.2061    4.8110   -0.1464 O.3     1  LIG1       -0.5045
     19 H           1.0686    5.6458    0.3355 H       1  LIG1        0.2922
     20 C          -1.7403    5.6917   -0.2805 C.ar    1  LIG1        0.0462
     21 C          -1.3754    6.8619    0.3176 C.ar    1  LIG1        0.0617
     22 C          -2.1130    7.9898   -0.1843 C.ar    1  LIG1        0.1376
     23 C          -3.0220    7.6484   -1.1316 C.ar    1  LIG1        0.0189
     24 S          -2.9947    5.9523   -1.4514 S.2     1  LIG1       -0.0912
     25 H          -3.7067    8.2970   -1.6542 H       1  LIG1        0.0731
     26 S          -0.2073    6.9898    1.6392 S.3     1  LIG1       -0.1380
     27 H           0.1607    8.2431    1.3529 H       1  LIG1        0.1072
     28 O          -1.8345    9.2205    0.3194 O.3     1  LIG1       -0.5051
     29 H          -2.3785    9.8960   -0.0989 H       1  LIG1        0.2922
@<TRIPOS>BOND
     1    25    23    1
     2    24    23   ar
     3    24    20   ar
     4     9    10    1
     5     9     3    1
     6    23    22   ar
     7     8     7    1
     8     7     2    1
     9    20    14    1
    10    20    21   ar
    11     3     2   ar
    12     3     4   ar
    13    17    16    1
    14    22    21   ar
    15    22    28    1
    16    18    13    1
    17    18    19    1
    18    29    28    1
    19    14    13   ar
    20    14    15   ar
    21    13    12   ar
    22    15    11   ar
    23     2     1   ar
    24    12    11   ar
    25    12    16    1
    26    11     4    1
    27    21    26    1
    28     4     5   ar
    29     1     5   ar
    30     1     6    1
    31    27    26    1
