@<TRIPOS>MOLECULE
mol_data/opt/m06hf/geoms/mol2/5gf5gf-5gf5gf.out
 38 41 0 0 0
SMALL
GASTEIGER

@<TRIPOS>ATOM
      1 C          -1.4602   -1.7079    1.7536 C.ar    1  LIG1       -0.0069
      2 C          -0.9384   -1.8520    0.5107 C.ar    1  LIG1        0.0539
      3 C          -0.5772   -0.5832   -0.0738 C.ar    1  LIG1        0.1452
      4 C          -0.8295    0.4742    0.7557 C.ar    1  LIG1        0.0696
      5 S          -1.5064   -0.0615    2.2616 S.2     1  LIG1       -0.0912
      6 H          -1.8079   -2.4877    2.4117 H       1  LIG1        0.0706
      7 S          -0.7268   -3.3887   -0.3363 S.3     1  LIG1       -0.1386
      8 H          -0.1761   -2.8255   -1.4169 H       1  LIG1        0.1072
      9 O          -0.0954   -0.5446   -1.3369 O.3     1  LIG1       -0.5045
     10 H           0.5499    0.1740   -1.4424 H       1  LIG1        0.2922
     11 C          -0.6538    1.8975    0.4612 C.ar    1  LIG1        0.0468
     12 C           0.4284    2.5188   -0.0882 C.ar    1  LIG1        0.0623
     13 C           0.2313    3.9321   -0.2674 C.ar    1  LIG1        0.1458
     14 C          -0.9884    4.3570    0.1805 C.ar    1  LIG1        0.0702
     15 S          -1.9174    3.0322    0.8123 S.2     1  LIG1       -0.0822
     16 S           1.9557    1.7204   -0.4880 S.3     1  LIG1       -0.1380
     17 H           2.3406    2.6652   -1.3527 H       1  LIG1        0.1072
     18 O           1.1950    4.6638   -0.8696 O.3     1  LIG1       -0.5045
     19 H           1.2616    5.5464   -0.4658 H       1  LIG1        0.2922
     20 C          -1.5430    5.7104    0.1156 C.ar    1  LIG1        0.0468
     21 C          -0.9401    6.8884    0.4452 C.ar    1  LIG1        0.0623
     22 C          -1.7887    8.0295    0.2325 C.ar    1  LIG1        0.1458
     23 C          -3.0298    7.6880   -0.2265 C.ar    1  LIG1        0.0701
     24 S          -3.1727    5.9674   -0.4201 S.2     1  LIG1       -0.0822
     25 S           0.6740    7.0345    1.1509 S.3     1  LIG1       -0.1380
     26 H           0.8745    8.2830    0.7132 H       1  LIG1        0.1072
     27 O          -1.2978    9.2697    0.4515 O.3     1  LIG1       -0.5045
     28 H          -1.9803    9.8498    0.8307 H       1  LIG1        0.2922
     29 C          -4.1286    8.5904   -0.5762 C.ar    1  LIG1        0.0462
     30 C          -4.6097    9.6420    0.1455 C.ar    1  LIG1        0.0617
     31 C          -5.6914   10.3152   -0.5222 C.ar    1  LIG1        0.1376
     32 C          -6.0115    9.7507   -1.7135 C.ar    1  LIG1        0.0189
     33 S          -4.9958    8.4009   -2.0652 S.2     1  LIG1       -0.0912
     34 H          -6.7856   10.0521   -2.4007 H       1  LIG1        0.0731
     35 S          -4.0561   10.0907    1.7650 S.3     1  LIG1       -0.1380
     36 H          -4.4705   11.3592    1.6736 H       1  LIG1        0.1072
     37 O          -6.2532   11.3941    0.0830 O.3     1  LIG1       -0.5051
     38 H          -6.9644   11.7617   -0.4522 H       1  LIG1        0.2922
@<TRIPOS>BOND
     1    34    32    1
     2    33    32   ar
     3    33    29   ar
     4    32    31   ar
     5    10     9    1
     6     8     7    1
     7    17    16    1
     8     9     3    1
     9    18    19    1
    10    18    13    1
    11    29    23    1
    12    29    30   ar
    13    31    37    1
    14    31    30   ar
    15    16    12    1
    16    38    37    1
    17    24    23   ar
    18    24    20   ar
    19     7     2    1
    20    13    12   ar
    21    13    14   ar
    22    23    22   ar
    23    12    11   ar
    24     3     2   ar
    25     3     4   ar
    26    20    14    1
    27    20    21   ar
    28    30    35    1
    29    14    15   ar
    30    22    21   ar
    31    22    27    1
    32    21    25    1
    33    27    28    1
    34    11     4    1
    35    11    15   ar
    36     2     1   ar
    37    26    25    1
    38     4     5   ar
    39    36    35    1
    40     1     5   ar
    41     1     6    1
