@<TRIPOS>MOLECULE
mol_data/opt/m06hf/geoms/mol2/5gf5gf-5gf-5gf.out
 38 41 0 0 0
SMALL
GASTEIGER

@<TRIPOS>ATOM
      1 C          -1.4888   -1.8929    1.2824 C.ar    1  LIG1       -0.0069
      2 C          -0.8516   -1.8975    0.0859 C.ar    1  LIG1        0.0539
      3 C          -0.4785   -0.5676   -0.3318 C.ar    1  LIG1        0.1452
      4 C          -0.8391    0.3946    0.5702 C.ar    1  LIG1        0.0696
      5 S          -1.6336   -0.3091    1.9458 S.2     1  LIG1       -0.0912
      6 H          -1.8692   -2.7438    1.8241 H       1  LIG1        0.0706
      7 S          -0.5094   -3.3315   -0.8894 S.3     1  LIG1       -0.1386
      8 H           0.1148   -2.6411   -1.8505 H       1  LIG1        0.1072
      9 O           0.1216   -0.3858   -1.5300 O.3     1  LIG1       -0.5045
     10 H           0.7788    0.3295   -1.4754 H       1  LIG1        0.2922
     11 C          -0.6877    1.8440    0.4312 C.ar    1  LIG1        0.0468
     12 C           0.4076    2.5485    0.0258 C.ar    1  LIG1        0.0623
     13 C           0.1732    3.9660   -0.0292 C.ar    1  LIG1        0.1458
     14 C          -1.0898    4.3093    0.3664 C.ar    1  LIG1        0.0702
     15 S          -2.0146    2.9019    0.7929 S.2     1  LIG1       -0.0822
     16 S           1.9953    1.8481   -0.3228 S.3     1  LIG1       -0.1380
     17 H           2.3501    2.8100   -1.1808 H       1  LIG1        0.1072
     18 O           1.1489    4.7814   -0.4860 O.3     1  LIG1       -0.5045
     19 H           1.1544    5.6224    0.0043 H       1  LIG1        0.2922
     20 C          -1.6749    5.6500    0.3948 C.ar    1  LIG1        0.0468
     21 C          -1.1172    6.7989    0.8719 C.ar    1  LIG1        0.0623
     22 C          -1.9650    7.9469    0.6940 C.ar    1  LIG1        0.1458
     23 C          -3.1552    7.6390    0.0972 C.ar    1  LIG1        0.0701
     24 S          -3.2404    5.9491   -0.2897 S.2     1  LIG1       -0.0822
     25 S           0.4315    6.9042    1.7191 S.3     1  LIG1       -0.1380
     26 H           0.6040    8.1985    1.4308 H       1  LIG1        0.1072
     27 O          -1.5506    9.1487    1.1483 O.3     1  LIG1       -0.5045
     28 H          -1.9011    9.8601    0.5852 H       1  LIG1        0.2922
     29 C          -4.2990    8.5279   -0.1263 C.ar    1  LIG1        0.0462
     30 C          -4.3135    9.7938   -0.6345 C.ar    1  LIG1        0.0617
     31 C          -5.6356   10.3607   -0.6590 C.ar    1  LIG1        0.1376
     32 C          -6.5840    9.5144   -0.1869 C.ar    1  LIG1        0.0189
     33 S          -5.8957    8.0140    0.3147 S.2     1  LIG1       -0.0912
     34 H          -7.6454    9.6863   -0.1106 H       1  LIG1        0.0731
     35 S          -2.9050   10.6426   -1.2911 S.3     1  LIG1       -0.1380
     36 H          -3.3247   11.8604   -0.9316 H       1  LIG1        0.1072
     37 O          -5.7866   11.6260   -1.1293 O.3     1  LIG1       -0.5051
     38 H          -6.7084   11.9016   -1.0877 H       1  LIG1        0.2922
@<TRIPOS>BOND
     1     8     7    1
     2     9    10    1
     3     9     3    1
     4    35    36    1
     5    35    30    1
     6    17    16    1
     7    37    38    1
     8    37    31    1
     9     7     2    1
    10    31    30   ar
    11    31    32   ar
    12    30    29   ar
    13    18    13    1
    14    18    19    1
    15     3     2   ar
    16     3     4   ar
    17    16    12    1
    18    24    23   ar
    19    24    20   ar
    20    32    34    1
    21    32    33   ar
    22    29    23    1
    23    29    33   ar
    24    13    12   ar
    25    13    14   ar
    26    12    11   ar
    27     2     1   ar
    28    23    22   ar
    29    14    20    1
    30    14    15   ar
    31    20    21   ar
    32    11     4    1
    33    11    15   ar
    34     4     5   ar
    35    28    27    1
    36    22    21   ar
    37    22    27    1
    38    21    25    1
    39     1     6    1
    40     1     5   ar
    41    26    25    1
