@<TRIPOS>MOLECULE
mol_data/opt/m06hf/geoms/mol2/5gg.out
 11 11 0 0 0
SMALL
GASTEIGER

@<TRIPOS>ATOM
      1 C          -2.1539   -1.6876    0.0001 C.ar    1  LIG1       -0.0101
      2 C          -0.7945   -1.6636   -0.0003 C.ar    1  LIG1        0.0249
      3 C          -0.2794   -0.3143   -0.0002 C.ar    1  LIG1        0.0249
      4 C          -1.2733    0.6133    0.0003 C.ar    1  LIG1       -0.0101
      5 S          -2.8312   -0.1100    0.0006 S.2     1  LIG1       -0.1028
      6 H          -2.7902   -2.5583    0.0001 H       1  LIG1        0.0705
      7 H          -1.1709    1.6868    0.0004 H       1  LIG1        0.0705
      8 S           0.1644   -3.1582   -0.0008 S.3     1  LIG1       -0.1410
      9 H           1.3635   -2.5712   -0.0011 H       1  LIG1        0.1072
     10 S           1.4650    0.0173   -0.0006 S.3     1  LIG1       -0.1410
     11 H           1.3464    1.3458   -0.0003 H       1  LIG1        0.1072
@<TRIPOS>BOND
     1     9     8    1
     2     8     2    1
     3    10    11    1
     4    10     3    1
     5     2     3   ar
     6     2     1   ar
     7     3     4   ar
     8     1     6    1
     9     1     5   ar
    10     4     7    1
    11     4     5   ar
