@<TRIPOS>MOLECULE
mol_data/opt/m06hf/geoms/mol2/5gg5gg-5gg5gg-.out
 38 41 0 0 0
SMALL
GASTEIGER

@<TRIPOS>ATOM
      1 C          -0.4492   -1.5553    2.2338 C.ar    1  LIG1       -0.0095
      2 C          -0.8818   -1.6858    0.9512 C.ar    1  LIG1        0.0256
      3 C          -0.9334   -0.4227    0.2604 C.ar    1  LIG1        0.0333
      4 C          -0.5218    0.6104    1.0506 C.ar    1  LIG1        0.0412
      5 S          -0.0862    0.0710    2.6370 S.2     1  LIG1       -0.0939
      6 H          -0.3258   -2.3483    2.9539 H       1  LIG1        0.0705
      7 S          -1.4165   -3.2288    0.2544 S.3     1  LIG1       -0.1410
      8 H          -0.3865   -3.3799   -0.5876 H       1  LIG1        0.1072
      9 S          -1.4829   -0.3144   -1.4131 S.3     1  LIG1       -0.1404
     10 H          -1.1947    0.9876   -1.5322 H       1  LIG1        0.1072
     11 C          -0.4423    2.0278    0.6640 C.ar    1  LIG1        0.0418
     12 C           0.5243    2.6284   -0.0953 C.ar    1  LIG1        0.0339
     13 C           0.2480    4.0196   -0.3388 C.ar    1  LIG1        0.0339
     14 C          -0.9202    4.4225    0.2418 C.ar    1  LIG1        0.0418
     15 S          -1.6943    3.1339    1.0948 S.2     1  LIG1       -0.0849
     16 S           1.9882    1.7858   -0.6376 S.3     1  LIG1       -0.1404
     17 H           1.7242    1.8815   -1.9483 H       1  LIG1        0.1072
     18 S           1.3410    5.0086   -1.3113 S.3     1  LIG1       -0.1404
     19 H           0.5173    6.0648   -1.3552 H       1  LIG1        0.1072
     20 C          -1.5011    5.7732    0.1907 C.ar    1  LIG1        0.0418
     21 C          -1.0457    6.8952    0.8277 C.ar    1  LIG1        0.0339
     22 C          -1.8161    8.0656    0.4970 C.ar    1  LIG1        0.0339
     23 C          -2.8263    7.7888   -0.3825 C.ar    1  LIG1        0.0418
     24 S          -2.8656    6.1123   -0.8060 S.2     1  LIG1       -0.0849
     25 S           0.2896    6.8809    1.9970 S.3     1  LIG1       -0.1404
     26 H           1.1892    7.4525    1.1842 H       1  LIG1        0.1072
     27 S          -1.4036    9.6405    1.1762 S.3     1  LIG1       -0.1404
     28 H          -2.3731   10.2886    0.5173 H       1  LIG1        0.1072
     29 C          -3.8138    8.7285   -0.9308 C.ar    1  LIG1        0.0412
     30 C          -4.8539    9.3130   -0.2642 C.ar    1  LIG1        0.0333
     31 C          -5.6135   10.1982   -1.1166 C.ar    1  LIG1        0.0256
     32 C          -5.1346   10.2248   -2.3903 C.ar    1  LIG1       -0.0095
     33 S          -3.7561    9.2259   -2.5897 S.2     1  LIG1       -0.0939
     34 H          -5.5321   10.7973   -3.2134 H       1  LIG1        0.0705
     35 S          -5.1632    9.0207    1.4493 S.3     1  LIG1       -0.1404
     36 H          -6.4562    9.3602    1.3744 H       1  LIG1        0.1072
     37 S          -7.0678   11.0882   -0.6158 S.3     1  LIG1       -0.1410
     38 H          -6.4271   12.0318    0.0894 H       1  LIG1        0.1072
@<TRIPOS>BOND
     1    34    32    1
     2    33    32   ar
     3    33    29   ar
     4    32    31   ar
     5    17    16    1
     6    10     9    1
     7     9     3    1
     8    19    18    1
     9    18    13    1
    10    31    37    1
    11    31    30   ar
    12    29    23    1
    13    29    30   ar
    14    24    23   ar
    15    24    20   ar
    16    16    12    1
    17    37    38    1
    18     8     7    1
    19    23    22   ar
    20    13    12   ar
    21    13    14   ar
    22    30    35    1
    23    12    11   ar
    24    20    14    1
    25    20    21   ar
    26    14    15   ar
    27     7     2    1
    28     3     2   ar
    29     3     4   ar
    30    22    21   ar
    31    22    27    1
    32    28    27    1
    33    11     4    1
    34    11    15   ar
    35    21    25    1
    36     2     1   ar
    37     4     5   ar
    38    26    25    1
    39    36    35    1
    40     1     5   ar
    41     1     6    1
