@<TRIPOS>MOLECULE
mol_data/opt/m06hf/geoms/mol2/5gg5gg5gg5gg-.out
 38 41 0 0 0
SMALL
GASTEIGER

@<TRIPOS>ATOM
      1 C          -1.4079   -2.0534    0.5713 C.ar    1  LIG1       -0.0095
      2 C          -0.3562   -1.8549   -0.2678 C.ar    1  LIG1        0.0256
      3 C          -0.0320   -0.4585   -0.4224 C.ar    1  LIG1        0.0333
      4 C          -0.8648    0.3450    0.3036 C.ar    1  LIG1        0.0412
      5 S          -2.0266   -0.5817    1.1978 S.2     1  LIG1       -0.0939
      6 H          -1.8434   -3.0016    0.8434 H       1  LIG1        0.0705
      7 S           0.5457   -3.1877   -1.0184 S.3     1  LIG1       -0.1410
      8 H           0.2182   -2.8938   -2.2838 H       1  LIG1        0.1072
      9 S           1.2779    0.0554   -1.4853 S.3     1  LIG1       -0.1404
     10 H           1.0657    1.3654   -1.2979 H       1  LIG1        0.1072
     11 C          -0.8439    1.8115    0.3858 C.ar    1  LIG1        0.0418
     12 C           0.0768    2.5841    1.0382 C.ar    1  LIG1        0.0339
     13 C          -0.2111    3.9931    0.9219 C.ar    1  LIG1        0.0339
     14 C          -1.3372    4.2294    0.1790 C.ar    1  LIG1        0.0418
     15 S          -2.0514    2.7708   -0.3962 S.2     1  LIG1       -0.0849
     16 S           1.4177    1.8667    1.9346 S.3     1  LIG1       -0.1404
     17 H           2.0004    3.0452    2.1937 H       1  LIG1        0.1072
     18 S           0.7262    5.2530    1.7477 S.3     1  LIG1       -0.1404
     19 H           1.0643    5.9208    0.6330 H       1  LIG1        0.1072
     20 C          -1.9256    5.5382   -0.1406 C.ar    1  LIG1        0.0418
     21 C          -1.3793    6.5119   -0.9286 C.ar    1  LIG1        0.0339
     22 C          -2.2221    7.6769   -1.0217 C.ar    1  LIG1        0.0339
     23 C          -3.3799    7.5333   -0.3048 C.ar    1  LIG1        0.0418
     24 S          -3.4537    6.0149    0.5040 S.2     1  LIG1       -0.0849
     25 S           0.1578    6.2813   -1.7721 S.3     1  LIG1       -0.1404
     26 H           0.2908    7.5762   -2.0913 H       1  LIG1        0.1072
     27 S          -1.8461    9.0836   -2.0380 S.3     1  LIG1       -0.1404
     28 H          -1.7171    9.9623   -1.0316 H       1  LIG1        0.1072
     29 C          -4.4611    8.5196   -0.1757 C.ar    1  LIG1        0.0412
     30 C          -4.3971    9.7138    0.4821 C.ar    1  LIG1        0.0333
     31 C          -5.6330   10.4528    0.3830 C.ar    1  LIG1        0.0256
     32 C          -6.5820    9.7732   -0.3175 C.ar    1  LIG1       -0.0095
     33 S          -6.0120    8.2656   -0.8967 S.2     1  LIG1       -0.0939
     34 H          -7.5886   10.1028   -0.5209 H       1  LIG1        0.0705
     35 S          -2.9489   10.2243    1.3548 S.3     1  LIG1       -0.1404
     36 H          -3.5046   11.3414    1.8413 H       1  LIG1        0.1072
     37 S          -5.9366   12.0378    1.1290 S.3     1  LIG1       -0.1410
     38 H          -5.4365   12.7740    0.1276 H       1  LIG1        0.1072
@<TRIPOS>BOND
     1     8     7    1
     2    26    25    1
     3    27    28    1
     4    27    22    1
     5    25    21    1
     6     9    10    1
     7     9     3    1
     8    22    21   ar
     9    22    23   ar
    10     7     2    1
    11    21    20   ar
    12    33    32   ar
    13    33    29   ar
    14    34    32    1
    15     3     2   ar
    16     3     4   ar
    17    15    14   ar
    18    15    11   ar
    19    32    31   ar
    20    23    29    1
    21    23    24   ar
    22     2     1   ar
    23    29    30   ar
    24    20    14    1
    25    20    24   ar
    26    38    37    1
    27    14    13   ar
    28     4    11    1
    29     4     5   ar
    30    31    30   ar
    31    31    37    1
    32    11    12   ar
    33    30    35    1
    34     1     6    1
    35     1     5   ar
    36    19    18    1
    37    13    12   ar
    38    13    18    1
    39    12    16    1
    40    35    36    1
    41    16    17    1
