@<TRIPOS>MOLECULE
mol_data/opt/m06hf/geoms/mol2/5gg5gg5gg-5gg-.out
 38 41 0 0 0
SMALL
GASTEIGER

@<TRIPOS>ATOM
      1 C          -1.5944   -2.0247    0.0016 C.ar    1  LIG1       -0.0095
      2 C          -0.5605   -1.7256   -0.8304 C.ar    1  LIG1        0.0256
      3 C          -0.2085   -0.3287   -0.7861 C.ar    1  LIG1        0.0333
      4 C          -1.0048    0.3741    0.0724 C.ar    1  LIG1        0.0412
      5 S          -2.1639   -0.6514    0.8541 S.2     1  LIG1       -0.0939
      6 H          -2.0396   -2.9960    0.1483 H       1  LIG1        0.0705
      7 S           0.3046   -2.9469   -1.7855 S.3     1  LIG1       -0.1410
      8 H          -0.1376   -2.5423   -2.9842 H       1  LIG1        0.1072
      9 S           1.0955    0.3199   -1.7804 S.3     1  LIG1       -0.1404
     10 H           0.9882    1.5636   -1.2953 H       1  LIG1        0.1072
     11 C          -0.9281    1.8110    0.3697 C.ar    1  LIG1        0.0418
     12 C          -0.0156    2.4250    1.1822 C.ar    1  LIG1        0.0339
     13 C          -0.2035    3.8541    1.2317 C.ar    1  LIG1        0.0339
     14 C          -1.2484    4.2647    0.4489 C.ar    1  LIG1        0.0418
     15 S          -2.0076    2.9469   -0.3611 S.2     1  LIG1       -0.0849
     16 S           1.2184    1.5069    2.0467 S.3     1  LIG1       -0.1404
     17 H           1.7984    2.5959    2.5652 H       1  LIG1        0.1072
     18 S           0.7545    4.9436    2.2524 S.3     1  LIG1       -0.1404
     19 H           1.3772    5.5588    1.2367 H       1  LIG1        0.1072
     20 C          -1.7172    5.6476    0.2630 C.ar    1  LIG1        0.0418
     21 C          -1.0609    6.6595   -0.3779 C.ar    1  LIG1        0.0339
     22 C          -1.7982    7.8951   -0.3527 C.ar    1  LIG1        0.0339
     23 C          -2.9858    7.7744    0.3136 C.ar    1  LIG1        0.0418
     24 S          -3.2338    6.1670    0.8970 S.2     1  LIG1       -0.0849
     25 S           0.4867    6.4241   -1.2075 S.3     1  LIG1       -0.1404
     26 H           1.0117    7.5994   -0.8304 H       1  LIG1        0.1072
     27 S          -1.1520    9.3546   -1.1090 S.3     1  LIG1       -0.1404
     28 H          -2.0434   10.1843   -0.5497 H       1  LIG1        0.1072
     29 C          -3.9838    8.8289    0.5365 C.ar    1  LIG1        0.0412
     30 C          -4.7744    9.4305   -0.4023 C.ar    1  LIG1        0.0333
     31 C          -5.6181   10.4515    0.1751 C.ar    1  LIG1        0.0256
     32 C          -5.4527   10.5572    1.5216 C.ar    1  LIG1       -0.0095
     33 S          -4.2697    9.4708    2.1204 S.2     1  LIG1       -0.0939
     34 H          -5.9689   11.2370    2.1805 H       1  LIG1        0.0705
     35 S          -4.7142    9.0044   -2.1150 S.3     1  LIG1       -0.1404
     36 H          -5.9718    9.3995   -2.3569 H       1  LIG1        0.1072
     37 S          -6.8116   11.4133   -0.7226 S.3     1  LIG1       -0.1410
     38 H          -5.9212   12.1442   -1.4069 H       1  LIG1        0.1072
@<TRIPOS>BOND
     1     8     7    1
     2    36    35    1
     3    35    30    1
     4     7     2    1
     5     9    10    1
     6     9     3    1
     7    38    37    1
     8    25    26    1
     9    25    21    1
    10    27    28    1
    11    27    22    1
    12     2     3   ar
    13     2     1   ar
    14     3     4   ar
    15    37    31    1
    16    30    31   ar
    17    30    29   ar
    18    21    22   ar
    19    21    20   ar
    20    15    11   ar
    21    15    14   ar
    22    22    23   ar
    23     1     6    1
    24     1     5   ar
    25     4    11    1
    26     4     5   ar
    27    31    32   ar
    28    20    14    1
    29    20    24   ar
    30    23    29    1
    31    23    24   ar
    32    11    12   ar
    33    14    13   ar
    34    29    33   ar
    35    12    13   ar
    36    12    16    1
    37    13    18    1
    38    19    18    1
    39    32    33   ar
    40    32    34    1
    41    16    17    1
