@<TRIPOS>MOLECULE
mol_data/opt/m06hf/geoms/mol2/5gg5gg5gg.out
 29 31 0 0 0
SMALL
GASTEIGER

@<TRIPOS>ATOM
      1 C          -1.5248   -1.9127    0.6549 C.ar    1  LIG1       -0.0095
      2 C          -0.5682   -1.7473   -0.2970 C.ar    1  LIG1        0.0256
      3 C          -0.2132   -0.3624   -0.4850 C.ar    1  LIG1        0.0333
      4 C          -0.9222    0.4645    0.3385 C.ar    1  LIG1        0.0412
      5 S          -2.0181   -0.4234    1.3462 S.2     1  LIG1       -0.0939
      6 H          -1.9609   -2.8463    0.9727 H       1  LIG1        0.0705
      7 S           0.2076   -3.1045   -1.1384 S.3     1  LIG1       -0.1410
      8 H          -0.3059   -2.8425   -2.3473 H       1  LIG1        0.1072
      9 S           0.9928    0.1030   -1.6881 S.3     1  LIG1       -0.1404
     10 H           0.6779    1.4063   -1.6723 H       1  LIG1        0.1072
     11 C          -0.8067    1.9233    0.4535 C.ar    1  LIG1        0.0418
     12 C           0.2887    2.6345    0.8608 C.ar    1  LIG1        0.0339
     13 C           0.0545    4.0560    0.8497 C.ar    1  LIG1        0.0339
     14 C          -1.2143    4.3713    0.4533 C.ar    1  LIG1        0.0418
     15 S          -2.1298    2.9585    0.0568 S.2     1  LIG1       -0.0849
     16 S           1.8237    1.8759    1.3168 S.3     1  LIG1       -0.1404
     17 H           1.9404    2.5428    2.4726 H       1  LIG1        0.1072
     18 S           1.3254    5.1800    1.3405 S.3     1  LIG1       -0.1404
     19 H           0.5108    6.2345    1.4732 H       1  LIG1        0.1072
     20 C          -1.7954    5.7117    0.3061 C.ar    1  LIG1        0.0412
     21 C          -1.4314    6.6750   -0.5937 C.ar    1  LIG1        0.0333
     22 C          -2.2227    7.8750   -0.4521 C.ar    1  LIG1        0.0256
     23 C          -3.1628    7.7611    0.5248 C.ar    1  LIG1       -0.0095
     24 S          -3.1027    6.2393    1.3120 S.2     1  LIG1       -0.0939
     25 H          -3.8764    8.5134    0.8214 H       1  LIG1        0.0705
     26 S          -0.1072    6.4551   -1.7422 S.3     1  LIG1       -0.1404
     27 H          -0.6730    7.2017   -2.7007 H       1  LIG1        0.1072
     28 S          -2.0936    9.3086   -1.4916 S.3     1  LIG1       -0.1410
     29 H          -0.8693    9.6721   -1.0895 H       1  LIG1        0.1072
@<TRIPOS>BOND
     1    27    26    1
     2     8     7    1
     3    26    21    1
     4     9    10    1
     5     9     3    1
     6    28    29    1
     7    28    22    1
     8     7     2    1
     9    21    22   ar
    10    21    20   ar
    11     3     2   ar
    12     3     4   ar
    13    22    23   ar
    14     2     1   ar
    15    15    14   ar
    16    15    11   ar
    17    20    14    1
    18    20    24   ar
    19     4    11    1
    20     4     5   ar
    21    14    13   ar
    22    11    12   ar
    23    23    25    1
    24    23    24   ar
    25     1     6    1
    26     1     5   ar
    27    13    12   ar
    28    13    18    1
    29    12    16    1
    30    16    17    1
    31    18    19    1
