@<TRIPOS>MOLECULE
mol_data/opt/m06hf/geoms/mol2/5gg5gg5gg-5gg.out
 38 41 0 0 0
SMALL
GASTEIGER

@<TRIPOS>ATOM
      1 C          -1.5557   -2.0227   -0.0273 C.ar    1  LIG1       -0.0095
      2 C          -0.5232   -1.7117   -0.8566 C.ar    1  LIG1        0.0256
      3 C          -0.1807   -0.3127   -0.8036 C.ar    1  LIG1        0.0333
      4 C          -0.9826    0.3796    0.0582 C.ar    1  LIG1        0.0412
      5 S          -2.1356   -0.6582    0.8326 S.2     1  LIG1       -0.0939
      6 H          -1.9945   -2.9978    0.1132 H       1  LIG1        0.0705
      7 S           0.3505   -2.9213   -1.8188 S.3     1  LIG1       -0.1410
      8 H          -0.0965   -2.5142   -3.0149 H       1  LIG1        0.1072
      9 S           1.1191    0.3503   -1.7938 S.3     1  LIG1       -0.1404
     10 H           1.0017    1.5914   -1.3042 H       1  LIG1        0.1072
     11 C          -0.9159    1.8155    0.3621 C.ar    1  LIG1        0.0418
     12 C          -0.0080    2.4329    1.1770 C.ar    1  LIG1        0.0339
     13 C          -0.2031    3.8610    1.2279 C.ar    1  LIG1        0.0339
     14 C          -1.2508    4.2673    0.4467 C.ar    1  LIG1        0.0418
     15 S          -2.0034    2.9470   -0.3644 S.2     1  LIG1       -0.0849
     16 S           1.2294    1.5212    2.0428 S.3     1  LIG1       -0.1404
     17 H           1.7867    2.6127    2.5830 H       1  LIG1        0.1072
     18 S           0.7452    4.9610    2.2470 S.3     1  LIG1       -0.1404
     19 H           1.4812    5.4690    1.2453 H       1  LIG1        0.1072
     20 C          -1.7266    5.6480    0.2630 C.ar    1  LIG1        0.0418
     21 C          -1.0743    6.6647   -0.3740 C.ar    1  LIG1        0.0339
     22 C          -1.8166    7.8975   -0.3425 C.ar    1  LIG1        0.0339
     23 C          -3.0031    7.7695    0.3243 C.ar    1  LIG1        0.0418
     24 S          -3.2448    6.1583    0.9002 S.2     1  LIG1       -0.0849
     25 S           0.4735    6.4403   -1.2059 S.3     1  LIG1       -0.1404
     26 H           1.0020    7.6059   -0.8039 H       1  LIG1        0.1072
     27 S          -1.1758    9.3629   -1.0919 S.3     1  LIG1       -0.1404
     28 H          -2.0716   10.1861   -0.5300 H       1  LIG1        0.1072
     29 C          -4.0052    8.8185    0.5538 C.ar    1  LIG1        0.0412
     30 C          -4.8005    9.4210   -0.3805 C.ar    1  LIG1        0.0333
     31 C          -5.6488   10.4343    0.2037 C.ar    1  LIG1        0.0256
     32 C          -5.4818   10.5337    1.5505 C.ar    1  LIG1       -0.0095
     33 S          -4.2920    9.4505    2.1415 S.2     1  LIG1       -0.0939
     34 H          -6.0005   11.2072    2.2138 H       1  LIG1        0.0705
     35 S          -4.7406    9.0042   -2.0955 S.3     1  LIG1       -0.1404
     36 H          -6.0010    9.3927   -2.3333 H       1  LIG1        0.1072
     37 S          -6.8491   11.3943   -0.6868 S.3     1  LIG1       -0.1410
     38 H          -5.9639   12.1322   -1.3703 H       1  LIG1        0.1072
@<TRIPOS>BOND
     1     8     7    1
     2    36    35    1
     3    35    30    1
     4     7     2    1
     5     9    10    1
     6     9     3    1
     7    38    37    1
     8    25    26    1
     9    25    21    1
    10    27    28    1
    11    27    22    1
    12     2     3   ar
    13     2     1   ar
    14     3     4   ar
    15    37    31    1
    16    30    31   ar
    17    30    29   ar
    18    21    22   ar
    19    21    20   ar
    20    15    11   ar
    21    15    14   ar
    22    22    23   ar
    23     1     6    1
    24     1     5   ar
    25     4    11    1
    26     4     5   ar
    27    31    32   ar
    28    20    14    1
    29    20    24   ar
    30    23    29    1
    31    23    24   ar
    32    11    12   ar
    33    14    13   ar
    34    29    33   ar
    35    12    13   ar
    36    12    16    1
    37    13    18    1
    38    19    18    1
    39    32    33   ar
    40    32    34    1
    41    16    17    1
