@<TRIPOS>MOLECULE
mol_data/opt/m06hf/geoms/mol2/5gg5gg-5gg5gg.out
 38 41 0 0 0
SMALL
GASTEIGER

@<TRIPOS>ATOM
      1 C          -0.4308   -1.5813    2.1592 C.ar    1  LIG1       -0.0095
      2 C          -0.9195   -1.6948    0.8948 C.ar    1  LIG1        0.0256
      3 C          -0.9714   -0.4271    0.2123 C.ar    1  LIG1        0.0333
      4 C          -0.5102    0.5935    0.9905 C.ar    1  LIG1        0.0412
      5 S          -0.0159    0.0349    2.5535 S.2     1  LIG1       -0.0939
      6 H          -0.2910   -2.3816    2.8681 H       1  LIG1        0.0705
      7 S          -1.5074   -3.2235    0.2081 S.3     1  LIG1       -0.1410
      8 H          -0.5216   -3.3732   -0.6865 H       1  LIG1        0.1072
      9 S          -1.5742   -0.2932   -1.4414 S.3     1  LIG1       -0.1404
     10 H          -1.1068    0.9495   -1.6226 H       1  LIG1        0.1072
     11 C          -0.4285    2.0150    0.6190 C.ar    1  LIG1        0.0418
     12 C           0.5593    2.6337   -0.0957 C.ar    1  LIG1        0.0339
     13 C           0.2888    4.0308   -0.3144 C.ar    1  LIG1        0.0339
     14 C          -0.9005    4.4168    0.2340 C.ar    1  LIG1        0.0418
     15 S          -1.6968    3.1080    1.0358 S.2     1  LIG1       -0.0849
     16 S           2.0319    1.7926   -0.6113 S.3     1  LIG1       -0.1404
     17 H           1.9494    2.1575   -1.8985 H       1  LIG1        0.1072
     18 S           1.4147    5.0501   -1.2141 S.3     1  LIG1       -0.1404
     19 H           0.5934    6.1075   -1.2565 H       1  LIG1        0.1072
     20 C          -1.4892    5.7646    0.1935 C.ar    1  LIG1        0.0418
     21 C          -1.0765    6.8700    0.8843 C.ar    1  LIG1        0.0339
     22 C          -1.8494    8.0415    0.5602 C.ar    1  LIG1        0.0339
     23 C          -2.8180    7.7822   -0.3691 C.ar    1  LIG1        0.0418
     24 S          -2.8189    6.1195   -0.8465 S.2     1  LIG1       -0.0849
     25 S           0.2087    6.8184    2.1035 S.3     1  LIG1       -0.1404
     26 H           0.9740    7.7542    1.5239 H       1  LIG1        0.1072
     27 S          -1.4852    9.5928    1.3184 S.3     1  LIG1       -0.1404
     28 H          -2.3030   10.3026    0.5265 H       1  LIG1        0.1072
     29 C          -3.8035    8.7201   -0.9225 C.ar    1  LIG1        0.0412
     30 C          -4.8365    9.3226   -0.2605 C.ar    1  LIG1        0.0333
     31 C          -5.6144   10.1735   -1.1319 C.ar    1  LIG1        0.0256
     32 C          -5.1568   10.1575   -2.4128 C.ar    1  LIG1       -0.0095
     33 S          -3.7765    9.1582   -2.5991 S.2     1  LIG1       -0.0939
     34 H          -5.5680   10.7007   -3.2489 H       1  LIG1        0.0705
     35 S          -5.1329    9.0903    1.4653 S.3     1  LIG1       -0.1404
     36 H          -6.4551    9.2789    1.3598 H       1  LIG1        0.1072
     37 S          -7.0757   11.0593   -0.6485 S.3     1  LIG1       -0.1410
     38 H          -6.4502   11.9698    0.1113 H       1  LIG1        0.1072
@<TRIPOS>BOND
     1    34    32    1
     2    33    32   ar
     3    33    29   ar
     4    32    31   ar
     5    17    16    1
     6    10     9    1
     7     9     3    1
     8    19    18    1
     9    18    13    1
    10    31    37    1
    11    31    30   ar
    12    29    23    1
    13    29    30   ar
    14    24    23   ar
    15    24    20   ar
    16     8     7    1
    17    37    38    1
    18    16    12    1
    19    23    22   ar
    20    13    12   ar
    21    13    14   ar
    22    30    35    1
    23    12    11   ar
    24    20    14    1
    25    20    21   ar
    26     7     2    1
    27     3     2   ar
    28     3     4   ar
    29    14    15   ar
    30    28    27    1
    31    22    21   ar
    32    22    27    1
    33    11     4    1
    34    11    15   ar
    35    21    25    1
    36     2     1   ar
    37     4     5   ar
    38    36    35    1
    39    26    25    1
    40     1     5   ar
    41     1     6    1
