@<TRIPOS>MOLECULE
mol_data/opt/m06hf/geoms/mol2/5gg5gg-5gg-5gg.out
 38 41 0 0 0
SMALL
GASTEIGER

@<TRIPOS>ATOM
      1 C          -0.2476   -1.7930    1.7652 C.ar    1  LIG1       -0.0095
      2 C          -0.5005   -1.8318    0.4292 C.ar    1  LIG1        0.0256
      3 C          -0.6092   -0.5131   -0.1442 C.ar    1  LIG1        0.0333
      4 C          -0.4314    0.4694    0.7879 C.ar    1  LIG1        0.0412
      5 S          -0.1323   -0.1859    2.3586 S.2     1  LIG1       -0.0939
      6 H          -0.1049   -2.6369    2.4208 H       1  LIG1        0.0705
      7 S          -0.7580   -3.3482   -0.4544 S.3     1  LIG1       -0.1410
      8 H           0.0161   -3.0235   -1.4969 H       1  LIG1        0.1072
      9 S          -0.9563   -0.2469   -1.8610 S.3     1  LIG1       -0.1404
     10 H          -0.0550    0.7353   -2.0061 H       1  LIG1        0.1072
     11 C          -0.4936    1.9232    0.5660 C.ar    1  LIG1        0.0418
     12 C           0.4358    2.7070   -0.0577 C.ar    1  LIG1        0.0339
     13 C           0.0390    4.0888   -0.1202 C.ar    1  LIG1        0.0339
     14 C          -1.1867    4.2972    0.4483 C.ar    1  LIG1        0.0418
     15 S          -1.8597    2.8384    1.0825 S.2     1  LIG1       -0.0849
     16 S           1.9649    2.0540   -0.6732 S.3     1  LIG1       -0.1404
     17 H           2.0141    2.8566   -1.7446 H       1  LIG1        0.1072
     18 S           1.0624    5.3104   -0.8791 S.3     1  LIG1       -0.1404
     19 H           0.1318    6.2740   -0.8486 H       1  LIG1        0.1072
     20 C          -1.9019    5.5778    0.5394 C.ar    1  LIG1        0.0418
     21 C          -1.6177    6.6167    1.3819 C.ar    1  LIG1        0.0339
     22 C          -2.5027    7.7384    1.1786 C.ar    1  LIG1        0.0339
     23 C          -3.4220    7.4999    0.1914 C.ar    1  LIG1        0.0418
     24 S          -3.2249    5.9436   -0.5153 S.2     1  LIG1       -0.0849
     25 S          -0.3171    6.5204    2.5702 S.3     1  LIG1       -0.1404
     26 H          -0.5005    7.7722    3.0073 H       1  LIG1        0.1072
     27 S          -2.4768    9.2138    2.1681 S.3     1  LIG1       -0.1404
     28 H          -1.9909   10.0245    1.2146 H       1  LIG1        0.1072
     29 C          -4.4486    8.4331   -0.2920 C.ar    1  LIG1        0.0412
     30 C          -4.2251    9.5888   -0.9815 C.ar    1  LIG1        0.0333
     31 C          -5.4523   10.2903   -1.2742 C.ar    1  LIG1        0.0256
     32 C          -6.5461    9.6210   -0.8185 C.ar    1  LIG1       -0.0095
     33 S          -6.1352    8.1679   -0.0100 S.2     1  LIG1       -0.0939
     34 H          -7.5750    9.9269   -0.9228 H       1  LIG1        0.0705
     35 S          -2.6020   10.1048   -1.4497 S.3     1  LIG1       -0.1404
     36 H          -3.0354   11.1350   -2.1877 H       1  LIG1        0.1072
     37 S          -5.5573   11.8129   -2.1855 S.3     1  LIG1       -0.1410
     38 H          -5.3602   12.6299   -1.1424 H       1  LIG1        0.1072
@<TRIPOS>BOND
     1    36    35    1
     2    37    31    1
     3    37    38    1
     4    10     9    1
     5     9     3    1
     6    17    16    1
     7     8     7    1
     8    35    30    1
     9    31    30   ar
    10    31    32   ar
    11    30    29   ar
    12    34    32    1
    13    18    19    1
    14    18    13    1
    15    32    33   ar
    16    16    12    1
    17    24    23   ar
    18    24    20   ar
    19     7     2    1
    20    29    33   ar
    21    29    23    1
    22     3     2   ar
    23     3     4   ar
    24    13    12   ar
    25    13    14   ar
    26    12    11   ar
    27    23    22   ar
    28     2     1   ar
    29    14    20    1
    30    14    15   ar
    31    20    21   ar
    32    11     4    1
    33    11    15   ar
    34     4     5   ar
    35    22    21   ar
    36    22    27    1
    37    28    27    1
    38    21    25    1
    39     1     5   ar
    40     1     6    1
    41    25    26    1
