@<TRIPOS>MOLECULE
mol_data/opt/m06hf/geoms/mol2/5gg5gg5gg5gg.out
 38 41 0 0 0
SMALL
GASTEIGER

@<TRIPOS>ATOM
      1 C          -1.4886   -2.0655    0.4776 C.ar    1  LIG1       -0.0095
      2 C          -0.3922   -1.8613   -0.3007 C.ar    1  LIG1        0.0256
      3 C          -0.0505   -0.4651   -0.4138 C.ar    1  LIG1        0.0333
      4 C          -0.9154    0.3327    0.2803 C.ar    1  LIG1        0.0412
      5 S          -2.1297   -0.5997    1.0953 S.2     1  LIG1       -0.0939
      6 H          -1.9446   -3.0146    0.7099 H       1  LIG1        0.0705
      7 S           0.5393   -3.1884   -1.0247 S.3     1  LIG1       -0.1410
      8 H           0.2819   -2.8712   -2.3005 H       1  LIG1        0.1072
      9 S           1.3180    0.0562   -1.3963 S.3     1  LIG1       -0.1404
     10 H           1.1053    1.3645   -1.1980 H       1  LIG1        0.1072
     11 C          -0.8887    1.7973    0.3885 C.ar    1  LIG1        0.0418
     12 C           0.0013    2.5518    1.1018 C.ar    1  LIG1        0.0339
     13 C          -0.2702    3.9647    0.9946 C.ar    1  LIG1        0.0339
     14 C          -1.3535    4.2222    0.1971 C.ar    1  LIG1        0.0418
     15 S          -2.0462    2.7791   -0.4401 S.2     1  LIG1       -0.0849
     16 S           1.2878    1.8091    2.0556 S.3     1  LIG1       -0.1404
     17 H           1.8641    2.9784    2.3651 H       1  LIG1        0.1072
     18 S           0.6305    5.2033    1.8904 S.3     1  LIG1       -0.1404
     19 H           1.0318    5.8871    0.8069 H       1  LIG1        0.1072
     20 C          -1.9150    5.5407   -0.1309 C.ar    1  LIG1        0.0418
     21 C          -1.3207    6.5232   -0.8720 C.ar    1  LIG1        0.0339
     22 C          -2.1493    7.6960   -0.9899 C.ar    1  LIG1        0.0339
     23 C          -3.3446    7.5496   -0.3381 C.ar    1  LIG1        0.0418
     24 S          -3.4719    6.0186    0.4397 S.2     1  LIG1       -0.0849
     25 S           0.2575    6.2946   -1.6364 S.3     1  LIG1       -0.1404
     26 H           0.4162    7.5936   -1.9260 H       1  LIG1        0.1072
     27 S          -1.7099    9.1166   -1.9606 S.3     1  LIG1       -0.1404
     28 H          -1.6282    9.9772   -0.9339 H       1  LIG1        0.1072
     29 C          -4.4244    8.5420   -0.2499 C.ar    1  LIG1        0.0412
     30 C          -4.3873    9.7246    0.4306 C.ar    1  LIG1        0.0333
     31 C          -5.6110   10.4747    0.2785 C.ar    1  LIG1        0.0256
     32 C          -6.5261    9.8142   -0.4829 C.ar    1  LIG1       -0.0095
     33 S          -5.9363    8.3121   -1.0566 S.2     1  LIG1       -0.0939
     34 H          -7.5181   10.1549   -0.7339 H       1  LIG1        0.0705
     35 S          -2.9843   10.2092    1.3876 S.3     1  LIG1       -0.1404
     36 H          -3.5574   11.3225    1.8627 H       1  LIG1        0.1072
     37 S          -5.9431   12.0494    1.0341 S.3     1  LIG1       -0.1410
     38 H          -5.3849   12.7982    0.0736 H       1  LIG1        0.1072
@<TRIPOS>BOND
     1     8     7    1
     2    27    22    1
     3    27    28    1
     4    26    25    1
     5    25    21    1
     6     9    10    1
     7     9     3    1
     8    33    32   ar
     9    33    29   ar
    10     7     2    1
    11    22    21   ar
    12    22    23   ar
    13    21    20   ar
    14    34    32    1
    15    32    31   ar
    16    15    14   ar
    17    15    11   ar
    18     3     2   ar
    19     3     4   ar
    20    23    29    1
    21    23    24   ar
    22     2     1   ar
    23    29    30   ar
    24    20    14    1
    25    20    24   ar
    26    38    37    1
    27    14    13   ar
    28    31    30   ar
    29    31    37    1
    30     4    11    1
    31     4     5   ar
    32    11    12   ar
    33    30    35    1
    34     1     6    1
    35     1     5   ar
    36    19    18    1
    37    13    12   ar
    38    13    18    1
    39    12    16    1
    40    35    36    1
    41    16    17    1
