@<TRIPOS>MOLECULE
mol_data/opt/m06hf/geoms/mol2/5gg5gg-5gg-5gg-.out
 38 41 0 0 0
SMALL
GASTEIGER

@<TRIPOS>ATOM
      1 C          -0.1259   -1.7945    1.6522 C.ar    1  LIG1       -0.0095
      2 C          -0.5549   -1.8210    0.3616 C.ar    1  LIG1        0.0256
      3 C          -0.7088   -0.4994   -0.1913 C.ar    1  LIG1        0.0333
      4 C          -0.3778    0.4736    0.7059 C.ar    1  LIG1        0.0412
      5 S           0.1088   -0.1964    2.2267 S.2     1  LIG1       -0.0939
      6 H           0.0675   -2.6478    2.2826 H       1  LIG1        0.0705
      7 S          -0.9721   -3.3191   -0.4961 S.3     1  LIG1       -0.1410
      8 H           0.0347   -3.2752   -1.3779 H       1  LIG1        0.1072
      9 S          -1.2641   -0.2527   -1.8487 S.3     1  LIG1       -0.1404
     10 H          -1.0416    1.0685   -1.8302 H       1  LIG1        0.1072
     11 C          -0.4187    1.9267    0.4784 C.ar    1  LIG1        0.0418
     12 C           0.5092    2.6889   -0.1777 C.ar    1  LIG1        0.0339
     13 C           0.1225    4.0734   -0.2645 C.ar    1  LIG1        0.0339
     14 C          -1.0918    4.3065    0.3200 C.ar    1  LIG1        0.0418
     15 S          -1.7666    2.8660    0.9984 S.2     1  LIG1       -0.0849
     16 S           2.0405    2.0265   -0.7709 S.3     1  LIG1       -0.1404
     17 H           1.9470    2.5625   -1.9956 H       1  LIG1        0.1072
     18 S           1.1461    5.2620   -1.0705 S.3     1  LIG1       -0.1404
     19 H           0.2473    6.2521   -0.9842 H       1  LIG1        0.1072
     20 C          -1.7901    5.5951    0.4290 C.ar    1  LIG1        0.0418
     21 C          -1.4712    6.6263    1.2682 C.ar    1  LIG1        0.0339
     22 C          -2.3745    7.7435    1.1273 C.ar    1  LIG1        0.0339
     23 C          -3.3365    7.5142    0.1797 C.ar    1  LIG1        0.0418
     24 S          -3.1617    5.9671   -0.5590 S.2     1  LIG1       -0.0849
     25 S          -0.1120    6.5234    2.3895 S.3     1  LIG1       -0.1404
     26 H          -0.2594    7.7802    2.8262 H       1  LIG1        0.1072
     27 S          -2.3249    9.1842    2.1645 S.3     1  LIG1       -0.1404
     28 H          -1.9744   10.0482    1.1970 H       1  LIG1        0.1072
     29 C          -4.4104    8.4316   -0.2241 C.ar    1  LIG1        0.0412
     30 C          -4.2620    9.6407   -0.8385 C.ar    1  LIG1        0.0333
     31 C          -5.5296   10.2959   -1.0561 C.ar    1  LIG1        0.0256
     32 C          -6.5776    9.5400   -0.6279 C.ar    1  LIG1       -0.0095
     33 S          -6.0737    8.0577    0.0660 S.2     1  LIG1       -0.0939
     34 H          -7.6230    9.7982   -0.6889 H       1  LIG1        0.0705
     35 S          -2.6816   10.2596   -1.3285 S.3     1  LIG1       -0.1404
     36 H          -3.1722   11.3917   -1.8499 H       1  LIG1        0.1072
     37 S          -5.7345   11.8788   -1.8411 S.3     1  LIG1       -0.1410
     38 H          -5.5933   12.6162   -0.7326 H       1  LIG1        0.1072
@<TRIPOS>BOND
     1    17    16    1
     2    36    35    1
     3     9    10    1
     4     9     3    1
     5    37    31    1
     6    37    38    1
     7     8     7    1
     8    35    30    1
     9    18    19    1
    10    18    13    1
    11    31    30   ar
    12    31    32   ar
    13    30    29   ar
    14    16    12    1
    15    34    32    1
    16    32    33   ar
    17    24    23   ar
    18    24    20   ar
    19     7     2    1
    20    13    12   ar
    21    13    14   ar
    22    29    33   ar
    23    29    23    1
    24     3     2   ar
    25     3     4   ar
    26    12    11   ar
    27    23    22   ar
    28    14    20    1
    29    14    15   ar
    30     2     1   ar
    31    20    21   ar
    32    11     4    1
    33    11    15   ar
    34     4     5   ar
    35    22    21   ar
    36    22    27    1
    37    28    27    1
    38    21    25    1
    39     1     5   ar
    40     1     6    1
    41    25    26    1
