@<TRIPOS>MOLECULE
mol_data/opt/m06hf/geoms/mol2/5gg5gg-.out
 20 21 0 0 0
SMALL
GASTEIGER

@<TRIPOS>ATOM
      1 C          -1.6808   -1.6996    1.0206 C.ar    1  LIG1       -0.0095
      2 C          -0.5894   -1.7592    0.2109 C.ar    1  LIG1        0.0256
      3 C          -0.1999   -0.4609   -0.2796 C.ar    1  LIG1        0.0333
      4 C          -1.0229    0.5293    0.1726 C.ar    1  LIG1        0.0412
      5 S          -2.2613   -0.0966    1.2134 S.2     1  LIG1       -0.0939
      6 H          -2.1641   -2.5312    1.5079 H       1  LIG1        0.0705
      7 S           0.2971   -3.2612   -0.1209 S.3     1  LIG1       -0.1410
      8 H          -0.0396   -3.3500   -1.4147 H       1  LIG1        0.1072
      9 S           1.1839   -0.2723   -1.3593 S.3     1  LIG1       -0.1404
     10 H           0.9947    1.0426   -1.5410 H       1  LIG1        0.1072
     11 C          -0.9309    1.9666   -0.1176 C.ar    1  LIG1        0.0412
     12 C          -0.0796    2.8711    0.4498 C.ar    1  LIG1        0.0333
     13 C          -0.2592    4.1996   -0.0891 C.ar    1  LIG1        0.0256
     14 C          -1.2492    4.2490   -1.0217 C.ar    1  LIG1       -0.0095
     15 S          -1.9635    2.7131   -1.2947 S.2     1  LIG1       -0.0939
     16 H          -1.5780    5.1227   -1.5615 H       1  LIG1        0.0705
     17 S           1.1221    2.4114    1.6612 S.3     1  LIG1       -0.1404
     18 H           1.1559    3.6223    2.2291 H       1  LIG1        0.1072
     19 S           0.6181    5.6452    0.4544 S.3     1  LIG1       -0.1410
     20 H           1.7934    5.3253   -0.1054 H       1  LIG1        0.1072
@<TRIPOS>BOND
     1    16    14    1
     2    10     9    1
     3     8     7    1
     4     9     3    1
     5    15    14   ar
     6    15    11   ar
     7    14    13   ar
     8     3     4   ar
     9     3     2   ar
    10     7     2    1
    11    11     4    1
    12    11    12   ar
    13    20    19    1
    14    13    12   ar
    15    13    19    1
    16     4     5   ar
    17     2     1   ar
    18    12    17    1
    19     1     5   ar
    20     1     6    1
    21    17    18    1
