@<TRIPOS>MOLECULE
mol_data/opt/m06hf/geoms/mol2/5gg5gg.out
 20 21 0 0 0
SMALL
GASTEIGER

@<TRIPOS>ATOM
      1 C          -1.7062   -1.6430    1.1515 C.ar    1  LIG1       -0.0095
      2 C          -0.5927   -1.7438    0.3766 C.ar    1  LIG1        0.0256
      3 C          -0.1908   -0.4732   -0.1727 C.ar    1  LIG1        0.0333
      4 C          -1.0268    0.5382    0.2023 C.ar    1  LIG1        0.0412
      5 S          -2.2932   -0.0332    1.2409 S.2     1  LIG1       -0.0939
      6 H          -2.2022   -2.4480    1.6697 H       1  LIG1        0.0705
      7 S           0.3037   -3.2596    0.1513 S.3     1  LIG1       -0.1410
      8 H           0.0032   -3.4191   -1.1446 H       1  LIG1        0.1072
      9 S           1.2221   -0.3402   -1.2225 S.3     1  LIG1       -0.1404
     10 H           1.0372    0.9625   -1.4801 H       1  LIG1        0.1072
     11 C          -0.9280    1.9579   -0.1628 C.ar    1  LIG1        0.0412
     12 C          -0.0934    2.8938    0.3779 C.ar    1  LIG1        0.0333
     13 C          -0.2590    4.1907   -0.2370 C.ar    1  LIG1        0.0256
     14 C          -1.2230    4.1872   -1.1977 C.ar    1  LIG1       -0.0095
     15 S          -1.9282    2.6371   -1.4066 S.2     1  LIG1       -0.0939
     16 H          -1.5375    5.0296   -1.7929 H       1  LIG1        0.0705
     17 S           1.0748    2.5032    1.6451 S.3     1  LIG1       -0.1404
     18 H           1.0918    3.7431    2.1472 H       1  LIG1        0.1072
     19 S           0.6018    5.6656    0.2513 S.3     1  LIG1       -0.1410
     20 H           1.7924    5.3183   -0.2574 H       1  LIG1        0.1072
@<TRIPOS>BOND
     1    16    14    1
     2    10     9    1
     3    15    14   ar
     4    15    11   ar
     5     9     3    1
     6    14    13   ar
     7     8     7    1
     8    20    19    1
     9    13    19    1
    10    13    12   ar
    11     3     4   ar
    12     3     2   ar
    13    11     4    1
    14    11    12   ar
    15     7     2    1
    16     4     5   ar
    17     2     1   ar
    18    12    17    1
    19     1     5   ar
    20     1     6    1
    21    17    18    1
