@<TRIPOS>MOLECULE
mol_data/opt/m06hf/geoms/mol2/5gg5gg5gg-.out
 29 31 0 0 0
SMALL
GASTEIGER

@<TRIPOS>ATOM
      1 C          -1.5143   -1.9151    0.6525 C.ar    1  LIG1       -0.0095
      2 C          -0.5475   -1.7466   -0.2885 C.ar    1  LIG1        0.0256
      3 C          -0.1954   -0.3605   -0.4731 C.ar    1  LIG1        0.0333
      4 C          -0.9167    0.4641    0.3419 C.ar    1  LIG1        0.0412
      5 S          -2.0208   -0.4273    1.3375 S.2     1  LIG1       -0.0939
      6 H          -1.9504   -2.8502    0.9659 H       1  LIG1        0.0705
      7 S           0.2428   -3.1013   -1.1203 S.3     1  LIG1       -0.1410
      8 H          -0.2579   -2.8417   -2.3352 H       1  LIG1        0.1072
      9 S           1.0223    0.1085   -1.6629 S.3     1  LIG1       -0.1404
     10 H           0.7030    1.4108   -1.6512 H       1  LIG1        0.1072
     11 C          -0.8075    1.9234    0.4578 C.ar    1  LIG1        0.0418
     12 C           0.2809    2.6384    0.8768 C.ar    1  LIG1        0.0339
     13 C           0.0420    4.0591    0.8629 C.ar    1  LIG1        0.0339
     14 C          -1.2235    4.3700    0.4525 C.ar    1  LIG1        0.0418
     15 S          -2.1297    2.9539    0.0461 S.2     1  LIG1       -0.0849
     16 S           1.8135    1.8847    1.3489 S.3     1  LIG1       -0.1404
     17 H           1.9179    2.5535    2.5047 H       1  LIG1        0.1072
     18 S           1.3035    5.1874    1.3679 S.3     1  LIG1       -0.1404
     19 H           0.4839    6.2391    1.4916 H       1  LIG1        0.1072
     20 C          -1.8076    5.7083    0.2985 C.ar    1  LIG1        0.0412
     21 C          -1.4357    6.6734   -0.5962 C.ar    1  LIG1        0.0333
     22 C          -2.2335    7.8702   -0.4643 C.ar    1  LIG1        0.0256
     23 C          -3.1858    7.7522    0.5002 C.ar    1  LIG1       -0.0095
     24 S          -3.1299    6.2304    1.2876 S.2     1  LIG1       -0.0939
     25 H          -3.9061    8.5016    0.7877 H       1  LIG1        0.0705
     26 S          -0.0962    6.4591   -1.7279 S.3     1  LIG1       -0.1404
     27 H          -0.6535    7.2028   -2.6936 H       1  LIG1        0.1072
     28 S          -2.0970    9.3046   -1.5018 S.3     1  LIG1       -0.1410
     29 H          -0.8789    9.6721   -1.0853 H       1  LIG1        0.1072
@<TRIPOS>BOND
     1    27    26    1
     2     8     7    1
     3    26    21    1
     4     9    10    1
     5     9     3    1
     6    28    29    1
     7    28    22    1
     8     7     2    1
     9    21    22   ar
    10    21    20   ar
    11     3     2   ar
    12     3     4   ar
    13    22    23   ar
    14     2     1   ar
    15    15    14   ar
    16    15    11   ar
    17    20    14    1
    18    20    24   ar
    19     4    11    1
    20     4     5   ar
    21    14    13   ar
    22    11    12   ar
    23    23    25    1
    24    23    24   ar
    25     1     6    1
    26     1     5   ar
    27    13    12   ar
    28    13    18    1
    29    12    16    1
    30    16    17    1
    31    18    19    1
