@<TRIPOS>MOLECULE
mol_data/opt/m06hf/geoms/mol2/5gh.out
 12 12 0 0 0
SMALL
GASTEIGER

@<TRIPOS>ATOM
      1 C          -2.0657   -1.6951    0.0098 C.ar    1  LIG1       -0.0093
      2 C          -0.7162   -1.6270   -0.1285 C.ar    1  LIG1        0.0324
      3 C          -0.2200   -0.2673   -0.1248 C.ar    1  LIG1        0.0450
      4 C          -1.2311    0.6317    0.0277 C.ar    1  LIG1       -0.0026
      5 S          -2.7714   -0.1395    0.1585 S.2     1  LIG1       -0.1021
      6 H          -2.6670   -2.5894    0.0369 H       1  LIG1        0.0705
      7 H          -1.1530    1.7054    0.0727 H       1  LIG1        0.0712
      8 S           0.3258   -3.0445   -0.3688 S.3     1  LIG1       -0.1403
      9 H           0.9597   -2.9641    0.8092 H       1  LIG1        0.1072
     10 N           1.1478    0.0045   -0.2011 N.pl3   1  LIG1       -0.3567
     11 H           1.6424   -0.6539   -0.7922 H       1  LIG1        0.1424
     12 H           1.3639    0.9613   -0.4449 H       1  LIG1        0.1424
@<TRIPOS>BOND
     1    11    10    1
     2    12    10    1
     3     8     2    1
     4     8     9    1
     5    10     3    1
     6     2     3   ar
     7     2     1   ar
     8     3     4   ar
     9     1     6    1
    10     1     5   ar
    11     4     7    1
    12     4     5   ar
