@<TRIPOS>MOLECULE
mol_data/opt/m06hf/geoms/mol2/5gh5gh-5gh-5gh-.out
 42 45 0 0 0
SMALL
GASTEIGER

@<TRIPOS>ATOM
      1 C          -1.0196   -1.6576    2.0224 C.ar    1  LIG1       -0.0087
      2 C          -0.6817   -1.8094    0.7156 C.ar    1  LIG1        0.0331
      3 C          -0.5227   -0.5471    0.0309 C.ar    1  LIG1        0.0534
      4 C          -0.7236    0.5134    0.8719 C.ar    1  LIG1        0.0487
      5 S          -1.1371   -0.0072    2.4780 S.2     1  LIG1       -0.0931
      6 H          -1.1978   -2.4458    2.7364 H       1  LIG1        0.0705
      7 S          -0.5416   -3.3787   -0.1029 S.3     1  LIG1       -0.1403
      8 H           0.7887   -3.3470   -0.2620 H       1  LIG1        0.1072
      9 N          -0.1765   -0.4667   -1.3095 N.pl3   1  LIG1       -0.3562
     10 H          -0.4444   -1.2860   -1.8419 H       1  LIG1        0.1424
     11 H          -0.4456    0.4019   -1.7557 H       1  LIG1        0.1424
     12 C          -0.6178    1.9222    0.4958 C.ar    1  LIG1        0.0433
     13 C           0.4398    2.5246   -0.1275 C.ar    1  LIG1        0.0414
     14 C           0.1955    3.9165   -0.4219 C.ar    1  LIG1        0.0540
     15 C          -1.0246    4.3318    0.0371 C.ar    1  LIG1        0.0493
     16 S          -1.9173    3.0328    0.7644 S.2     1  LIG1       -0.0841
     17 S           1.9678    1.7177   -0.5314 S.3     1  LIG1       -0.1397
     18 H           2.7227    2.6637    0.0490 H       1  LIG1        0.1072
     19 N           1.1430    4.7148   -1.0511 N.pl3   1  LIG1       -0.3562
     20 H           1.7200    4.2061   -1.7110 H       1  LIG1        0.1424
     21 H           0.7599    5.5662   -1.4457 H       1  LIG1        0.1424
     22 C          -1.5449    5.6940   -0.0623 C.ar    1  LIG1        0.0433
     23 C          -0.9195    6.8428    0.3369 C.ar    1  LIG1        0.0414
     24 C          -1.6851    8.0299    0.0383 C.ar    1  LIG1        0.0540
     25 C          -2.8931    7.7338   -0.5299 C.ar    1  LIG1        0.0493
     26 S          -3.0920    6.0255   -0.7702 S.2     1  LIG1       -0.0841
     27 S           0.6488    6.9051    1.1651 S.3     1  LIG1       -0.1397
     28 H           0.2030    7.7297    2.1246 H       1  LIG1        0.1072
     29 N          -1.2254    9.3021    0.3625 N.pl3   1  LIG1       -0.3562
     30 H          -0.2197    9.3945    0.2728 H       1  LIG1        0.1424
     31 H          -1.7245   10.0449   -0.1135 H       1  LIG1        0.1424
     32 C          -3.9171    8.7053   -0.9091 C.ar    1  LIG1        0.0427
     33 C          -4.4692    9.6755   -0.1204 C.ar    1  LIG1        0.0408
     34 C          -5.4421   10.4827   -0.8245 C.ar    1  LIG1        0.0456
     35 C          -5.6095   10.0713   -2.1099 C.ar    1  LIG1       -0.0020
     36 S          -4.5836    8.7417   -2.5076 S.2     1  LIG1       -0.0931
     37 H          -6.2800   10.4842   -2.8460 H       1  LIG1        0.0712
     38 S          -4.0930    9.9225    1.5942 S.3     1  LIG1       -0.1397
     39 H          -5.3788   10.1061    1.9298 H       1  LIG1        0.1072
     40 N          -6.1531   11.4887   -0.1537 N.pl3   1  LIG1       -0.3567
     41 H          -5.5445   12.0947    0.3873 H       1  LIG1        0.1424
     42 H          -6.7516   12.0308   -0.7636 H       1  LIG1        0.1424
@<TRIPOS>BOND
     1    37    35    1
     2    36    35   ar
     3    36    32   ar
     4    35    34   ar
     5    10     9    1
     6    11     9    1
     7    20    19    1
     8    21    19    1
     9     9     3    1
    10    19    14    1
    11    32    25    1
    12    32    33   ar
    13    34    40    1
    14    34    33   ar
    15    26    25   ar
    16    26    22   ar
    17    42    40    1
    18    17    13    1
    19    17    18    1
    20    25    24   ar
    21    14    13   ar
    22    14    15   ar
    23     8     7    1
    24    40    41    1
    25    13    12   ar
    26    33    38    1
    27    31    29    1
    28     7     2    1
    29    22    15    1
    30    22    23   ar
    31     3     2   ar
    32     3     4   ar
    33    15    16   ar
    34    24    23   ar
    35    24    29    1
    36    30    29    1
    37    23    27    1
    38    12    16   ar
    39    12     4    1
    40     2     1   ar
    41     4     5   ar
    42    27    28    1
    43    38    39    1
    44     1     5   ar
    45     1     6    1
