@<TRIPOS>MOLECULE
mol_data/opt/m06hf/geoms/mol2/5gh5gh5gh-5gh.out
 42 45 0 0 0
SMALL
GASTEIGER

@<TRIPOS>ATOM
      1 C          -1.0373   -1.6551    2.0194 C.ar    1  LIG1       -0.0087
      2 C          -0.6877   -1.8081    0.7158 C.ar    1  LIG1        0.0331
      3 C          -0.5227   -0.5466    0.0313 C.ar    1  LIG1        0.0534
      4 C          -0.7312    0.5147    0.8693 C.ar    1  LIG1        0.0487
      5 S          -1.1589   -0.0042    2.4723 S.2     1  LIG1       -0.0931
      6 H          -1.2218   -2.4426    2.7326 H       1  LIG1        0.0705
      7 S          -0.5402   -3.3783   -0.0998 S.3     1  LIG1       -0.1403
      8 H           0.7915   -3.3467   -0.2469 H       1  LIG1        0.1072
      9 N          -0.1646   -0.4675   -1.3060 N.pl3   1  LIG1       -0.3562
     10 H          -0.4277   -1.2874   -1.8400 H       1  LIG1        0.1424
     11 H          -0.4297    0.4005   -1.7555 H       1  LIG1        0.1424
     12 C          -0.6224    1.9232    0.4927 C.ar    1  LIG1        0.0433
     13 C           0.4407    2.5251   -0.1219 C.ar    1  LIG1        0.0414
     14 C           0.1989    3.9166   -0.4199 C.ar    1  LIG1        0.0540
     15 C          -1.0254    4.3322    0.0276 C.ar    1  LIG1        0.0493
     16 S          -1.9243    3.0339    0.7484 S.2     1  LIG1       -0.0841
     17 S           1.9724    1.7180   -0.5112 S.3     1  LIG1       -0.1397
     18 H           2.7219    2.6650    0.0744 H       1  LIG1        0.1072
     19 N           1.1517    4.7144   -1.0416 N.pl3   1  LIG1       -0.3562
     20 H           1.7347    4.2051   -1.6958 H       1  LIG1        0.1424
     21 H           0.7721    5.5653   -1.4404 H       1  LIG1        0.1424
     22 C          -1.5450    5.6941   -0.0780 C.ar    1  LIG1        0.0433
     23 C          -0.9235    6.8436    0.3255 C.ar    1  LIG1        0.0414
     24 C          -1.6865    8.0302    0.0187 C.ar    1  LIG1        0.0540
     25 C          -2.8894    7.7332   -0.5600 C.ar    1  LIG1        0.0493
     26 S          -3.0858    6.0246   -0.8001 S.2     1  LIG1       -0.0841
     27 S           0.6374    6.9071    1.1676 S.3     1  LIG1       -0.1397
     28 H           0.1829    7.7327    2.1222 H       1  LIG1        0.1072
     29 N          -1.2299    9.3028    0.3455 N.pl3   1  LIG1       -0.3562
     30 H          -0.2235    9.3953    0.2648 H       1  LIG1        0.1424
     31 H          -1.7249   10.0450   -0.1357 H       1  LIG1        0.1424
     32 C          -3.9101    8.7042   -0.9495 C.ar    1  LIG1        0.0427
     33 C          -4.4693    9.6751   -0.1668 C.ar    1  LIG1        0.0408
     34 C          -5.4359   10.4814   -0.8805 C.ar    1  LIG1        0.0456
     35 C          -5.5919   10.0685   -2.1668 C.ar    1  LIG1       -0.0020
     36 S          -4.5622    8.7387   -2.5538 S.2     1  LIG1       -0.0931
     37 H          -6.2558   10.4805   -2.9093 H       1  LIG1        0.0712
     38 S          -4.1085    9.9241    1.5508 S.3     1  LIG1       -0.1397
     39 H          -5.3972   10.1078    1.8747 H       1  LIG1        0.1072
     40 N          -6.1530   11.4880   -0.2171 N.pl3   1  LIG1       -0.3567
     41 H          -5.5495   12.0946    0.3287 H       1  LIG1        0.1424
     42 H          -6.7461   12.0294   -0.8330 H       1  LIG1        0.1424
@<TRIPOS>BOND
     1    37    35    1
     2    36    35   ar
     3    36    32   ar
     4    35    34   ar
     5    10     9    1
     6    11     9    1
     7    20    19    1
     8    21    19    1
     9     9     3    1
    10    19    14    1
    11    32    25    1
    12    32    33   ar
    13    34    40    1
    14    34    33   ar
    15    42    40    1
    16    26    25   ar
    17    26    22   ar
    18    25    24   ar
    19    17    13    1
    20    17    18    1
    21    14    13   ar
    22    14    15   ar
    23     8     7    1
    24    40    41    1
    25    33    38    1
    26    31    29    1
    27    13    12   ar
    28     7     2    1
    29    22    15    1
    30    22    23   ar
    31    24    23   ar
    32    24    29    1
    33    15    16   ar
    34     3     2   ar
    35     3     4   ar
    36    30    29    1
    37    23    27    1
    38    12    16   ar
    39    12     4    1
    40     2     1   ar
    41     4     5   ar
    42    27    28    1
    43    38    39    1
    44     1     5   ar
    45     1     6    1
