@<TRIPOS>MOLECULE
mol_data/opt/m06hf/geoms/mol2/5gh5gh5gh-5gh-.out
 42 45 0 0 0
SMALL
GASTEIGER

@<TRIPOS>ATOM
      1 C          -1.0372   -1.6522    2.0257 C.ar    1  LIG1       -0.0087
      2 C          -0.6882   -1.8073    0.7222 C.ar    1  LIG1        0.0331
      3 C          -0.5233   -0.5468    0.0356 C.ar    1  LIG1        0.0534
      4 C          -0.7314    0.5158    0.8722 C.ar    1  LIG1        0.0487
      5 S          -1.1584   -0.0006    2.4761 S.2     1  LIG1       -0.0931
      6 H          -1.2215   -2.4385    2.7402 H       1  LIG1        0.0705
      7 S          -0.5414   -3.3787   -0.0911 S.3     1  LIG1       -0.1403
      8 H           0.7903   -3.3475   -0.2389 H       1  LIG1        0.1072
      9 N          -0.1658   -0.4699   -1.3019 N.pl3   1  LIG1       -0.3562
     10 H          -0.4293   -1.2905   -1.8346 H       1  LIG1        0.1424
     11 H          -0.4310    0.3976   -1.7527 H       1  LIG1        0.1424
     12 C          -0.6224    1.9237    0.4933 C.ar    1  LIG1        0.0433
     13 C           0.4405    2.5245   -0.1227 C.ar    1  LIG1        0.0414
     14 C           0.1987    3.9155   -0.4228 C.ar    1  LIG1        0.0540
     15 C          -1.0253    4.3321    0.0247 C.ar    1  LIG1        0.0493
     16 S          -1.9241    3.0350    0.7479 S.2     1  LIG1       -0.0841
     17 S           1.9718    1.7166   -0.5115 S.3     1  LIG1       -0.1397
     18 H           2.7218    2.6644    0.0724 H       1  LIG1        0.1072
     19 N           1.1514    4.7122   -1.0461 N.pl3   1  LIG1       -0.3562
     20 H           1.7339    4.2019   -1.6998 H       1  LIG1        0.1424
     21 H           0.7716    5.5626   -1.4461 H       1  LIG1        0.1424
     22 C          -1.5448    5.6939   -0.0827 C.ar    1  LIG1        0.0433
     23 C          -0.9229    6.8438    0.3187 C.ar    1  LIG1        0.0414
     24 C          -1.6859    8.0301    0.0104 C.ar    1  LIG1        0.0540
     25 C          -2.8891    7.7324   -0.5672 C.ar    1  LIG1        0.0493
     26 S          -3.0859    6.0234   -0.8047 S.2     1  LIG1       -0.0841
     27 S           0.6384    6.9084    1.1600 S.3     1  LIG1       -0.1397
     28 H           0.1844    7.7356    2.1135 H       1  LIG1        0.1072
     29 N          -1.2290    9.3032    0.3350 N.pl3   1  LIG1       -0.3562
     30 H          -0.2226    9.3954    0.2537 H       1  LIG1        0.1424
     31 H          -1.7240   10.0447   -0.1471 H       1  LIG1        0.1424
     32 C          -3.9098    8.7029   -0.9577 C.ar    1  LIG1        0.0427
     33 C          -4.4685    9.6752   -0.1763 C.ar    1  LIG1        0.0408
     34 C          -5.4354   10.4805   -0.8908 C.ar    1  LIG1        0.0456
     35 C          -5.5920   10.0656   -2.1764 C.ar    1  LIG1       -0.0020
     36 S          -4.5627    8.7351   -2.5619 S.2     1  LIG1       -0.0931
     37 H          -6.2562   10.4766   -2.9193 H       1  LIG1        0.0712
     38 S          -4.1069    9.9268    1.5408 S.3     1  LIG1       -0.1397
     39 H          -5.3955   10.1112    1.8649 H       1  LIG1        0.1072
     40 N          -6.1521   11.4882   -0.2287 N.pl3   1  LIG1       -0.3567
     41 H          -5.5482   12.0956    0.3160 H       1  LIG1        0.1424
     42 H          -6.7453   12.0288   -0.8451 H       1  LIG1        0.1424
@<TRIPOS>BOND
     1    37    35    1
     2    36    35   ar
     3    36    32   ar
     4    35    34   ar
     5    10     9    1
     6    11     9    1
     7    20    19    1
     8    21    19    1
     9     9     3    1
    10    19    14    1
    11    32    25    1
    12    32    33   ar
    13    34    40    1
    14    34    33   ar
    15    42    40    1
    16    26    25   ar
    17    26    22   ar
    18    25    24   ar
    19    17    13    1
    20    17    18    1
    21    14    13   ar
    22    14    15   ar
    23     8     7    1
    24    40    41    1
    25    33    38    1
    26    31    29    1
    27    13    12   ar
    28     7     2    1
    29    22    15    1
    30    22    23   ar
    31    24    23   ar
    32    24    29    1
    33    15    16   ar
    34     3     2   ar
    35     3     4   ar
    36    30    29    1
    37    23    27    1
    38    12    16   ar
    39    12     4    1
    40     2     1   ar
    41     4     5   ar
    42    27    28    1
    43    38    39    1
    44     1     5   ar
    45     1     6    1
