@<TRIPOS>MOLECULE
mol_data/opt/m06hf/geoms/mol2/5gh5gh5gh5gh.out
 42 45 0 0 0
SMALL
GASTEIGER

@<TRIPOS>ATOM
      1 C          -1.0215   -1.6529    2.0268 C.ar    1  LIG1       -0.0087
      2 C          -0.6817   -1.8074    0.7207 C.ar    1  LIG1        0.0331
      3 C          -0.5218   -0.5466    0.0336 C.ar    1  LIG1        0.0534
      4 C          -0.7241    0.5157    0.8721 C.ar    1  LIG1        0.0487
      5 S          -1.1397   -0.0015    2.4787 S.2     1  LIG1       -0.0931
      6 H          -1.2007   -2.4396    2.7421 H       1  LIG1        0.0705
      7 S          -0.5403   -3.3784   -0.0943 S.3     1  LIG1       -0.1403
      8 H           0.7902   -3.3470   -0.2514 H       1  LIG1        0.1072
      9 N          -0.1738   -0.4690   -1.3064 N.pl3   1  LIG1       -0.3562
     10 H          -0.4409   -1.2894   -1.8376 H       1  LIG1        0.1424
     11 H          -0.4422    0.3986   -1.7549 H       1  LIG1        0.1424
     12 C          -0.6180    1.9237    0.4930 C.ar    1  LIG1        0.0433
     13 C           0.4404    2.5249   -0.1301 C.ar    1  LIG1        0.0414
     14 C           0.1963    3.9161   -0.4279 C.ar    1  LIG1        0.0540
     15 C          -1.0246    4.3322    0.0284 C.ar    1  LIG1        0.0493
     16 S          -1.9181    3.0347    0.7573 S.2     1  LIG1       -0.0841
     17 S           1.9691    1.7174   -0.5300 S.3     1  LIG1       -0.1397
     18 H           2.7230    2.6652    0.0488 H       1  LIG1        0.1072
     19 N           1.1445    4.7132   -1.0575 N.pl3   1  LIG1       -0.3562
     20 H           1.7225    4.2032   -1.7156 H       1  LIG1        0.1424
     21 H           0.7618    5.5637   -1.4544 H       1  LIG1        0.1424
     22 C          -1.5450    5.6940   -0.0747 C.ar    1  LIG1        0.0433
     23 C          -0.9204    6.8439    0.3229 C.ar    1  LIG1        0.0414
     24 C          -1.6857    8.0302    0.0204 C.ar    1  LIG1        0.0540
     25 C          -2.8929    7.7326   -0.5488 C.ar    1  LIG1        0.0493
     26 S          -3.0911    6.0237   -0.7857 S.2     1  LIG1       -0.0841
     27 S           0.6467    6.9083    1.1532 S.3     1  LIG1       -0.1397
     28 H           0.1994    7.7349    2.1102 H       1  LIG1        0.1072
     29 N          -1.2267    9.3032    0.3424 N.pl3   1  LIG1       -0.3562
     30 H          -0.2209    9.3955    0.2541 H       1  LIG1        0.1424
     31 H          -1.7252   10.0448   -0.1358 H       1  LIG1        0.1424
     32 C          -3.9164    8.7032   -0.9317 C.ar    1  LIG1        0.0427
     33 C          -4.4697    9.6750   -0.1460 C.ar    1  LIG1        0.0408
     34 C          -5.4417   10.4805   -0.8532 C.ar    1  LIG1        0.0456
     35 C          -5.6073   10.0662   -2.1379 C.ar    1  LIG1       -0.0020
     36 S          -4.5807    8.7360   -2.5312 S.2     1  LIG1       -0.0931
     37 H          -6.2768   10.4774   -2.8759 H       1  LIG1        0.0712
     38 S          -4.0960    9.9259    1.5686 S.3     1  LIG1       -0.1397
     39 H          -5.3823   10.1100    1.9020 H       1  LIG1        0.1072
     40 N          -6.1538   11.4879   -0.1856 N.pl3   1  LIG1       -0.3567
     41 H          -5.5461   12.0951    0.3550 H       1  LIG1        0.1424
     42 H          -6.7514   12.0287   -0.7976 H       1  LIG1        0.1424
@<TRIPOS>BOND
     1    37    35    1
     2    36    35   ar
     3    36    32   ar
     4    35    34   ar
     5    10     9    1
     6    11     9    1
     7    20    19    1
     8    21    19    1
     9     9     3    1
    10    19    14    1
    11    32    25    1
    12    32    33   ar
    13    34    40    1
    14    34    33   ar
    15    42    40    1
    16    26    25   ar
    17    26    22   ar
    18    25    24   ar
    19    17    13    1
    20    17    18    1
    21    14    13   ar
    22    14    15   ar
    23     8     7    1
    24    40    41    1
    25    33    38    1
    26    31    29    1
    27    13    12   ar
    28     7     2    1
    29    22    15    1
    30    22    23   ar
    31    24    23   ar
    32    24    29    1
    33    15    16   ar
    34     3     2   ar
    35     3     4   ar
    36    30    29    1
    37    23    27    1
    38    12    16   ar
    39    12     4    1
    40     2     1   ar
    41     4     5   ar
    42    27    28    1
    43    38    39    1
    44     1     5   ar
    45     1     6    1
