@<TRIPOS>MOLECULE
mol_data/opt/m06hf/geoms/mol2/5gh5gh-5gh5gh.out
 42 45 0 0 0
SMALL
GASTEIGER

@<TRIPOS>ATOM
      1 C          -1.0044   -1.6594    2.0204 C.ar    1  LIG1       -0.0087
      2 C          -0.6752   -1.8098    0.7111 C.ar    1  LIG1        0.0331
      3 C          -0.5210   -0.5469    0.0267 C.ar    1  LIG1        0.0534
      4 C          -0.7164    0.5128    0.8701 C.ar    1  LIG1        0.0487
      5 S          -1.1189   -0.0094    2.4784 S.2     1  LIG1       -0.0931
      6 H          -1.1777   -2.4483    2.7348 H       1  LIG1        0.0705
      7 S          -0.5405   -3.3783   -0.1098 S.3     1  LIG1       -0.1403
      8 H           0.7887   -3.3463   -0.2777 H       1  LIG1        0.1072
      9 N          -0.1839   -0.4651   -1.3159 N.pl3   1  LIG1       -0.3562
     10 H          -0.4553   -1.2839   -1.8474 H       1  LIG1        0.1424
     11 H          -0.4560    0.4039   -1.7595 H       1  LIG1        0.1424
     12 C          -0.6135    1.9220    0.4946 C.ar    1  LIG1        0.0433
     13 C           0.4398    2.5252   -0.1353 C.ar    1  LIG1        0.0414
     14 C           0.1933    3.9173   -0.4268 C.ar    1  LIG1        0.0540
     15 C          -1.0238    4.3319    0.0408 C.ar    1  LIG1        0.0493
     16 S          -1.9113    3.0321    0.7729 S.2     1  LIG1       -0.0841
     17 S           1.9652    1.7190   -0.5502 S.3     1  LIG1       -0.1397
     18 H           2.7238    2.6648    0.0255 H       1  LIG1        0.1072
     19 N           1.1363    4.7163   -1.0616 N.pl3   1  LIG1       -0.3562
     20 H           1.7089    4.2084   -1.7260 H       1  LIG1        0.1424
     21 H           0.7504    5.5681   -1.4528 H       1  LIG1        0.1424
     22 C          -1.5450    5.6940   -0.0539 C.ar    1  LIG1        0.0433
     23 C          -0.9173    6.8427    0.3422 C.ar    1  LIG1        0.0414
     24 C          -1.6851    8.0299    0.0497 C.ar    1  LIG1        0.0540
     25 C          -2.8968    7.7340   -0.5106 C.ar    1  LIG1        0.0493
     26 S          -3.0969    6.0259   -0.7512 S.2     1  LIG1       -0.0841
     27 S           0.6566    6.9045    1.1599 S.3     1  LIG1       -0.1397
     28 H           0.2170    7.7282    2.1231 H       1  LIG1        0.1072
     29 N          -1.2234    9.3019    0.3719 N.pl3   1  LIG1       -0.3562
     30 H          -0.2184    9.3945    0.2756 H       1  LIG1        0.1424
     31 H          -1.7258   10.0450   -0.1000 H       1  LIG1        0.1424
     32 C          -3.9235    8.7057   -0.8821 C.ar    1  LIG1        0.0427
     33 C          -4.4704    9.6751   -0.0889 C.ar    1  LIG1        0.0408
     34 C          -5.4481   10.4827   -0.7857 C.ar    1  LIG1        0.0456
     35 C          -5.6242   10.0725   -2.0703 C.ar    1  LIG1       -0.0020
     36 S          -4.6007    8.7434   -2.4760 S.2     1  LIG1       -0.0931
     37 H          -6.2996   10.4859   -2.8015 H       1  LIG1        0.0712
     38 S          -4.0827    9.9206    1.6234 S.3     1  LIG1       -0.1397
     39 H          -5.3663   10.1036    1.9678 H       1  LIG1        0.1072
     40 N          -6.1548   11.4880   -0.1091 N.pl3   1  LIG1       -0.3567
     41 H          -5.5427   12.0935    0.4284 H       1  LIG1        0.1424
     42 H          -6.7574   12.0306   -0.7145 H       1  LIG1        0.1424
@<TRIPOS>BOND
     1    37    35    1
     2    36    35   ar
     3    36    32   ar
     4    35    34   ar
     5    10     9    1
     6    11     9    1
     7    20    19    1
     8    21    19    1
     9     9     3    1
    10    19    14    1
    11    32    25    1
    12    32    33   ar
    13    34    40    1
    14    34    33   ar
    15    26    25   ar
    16    26    22   ar
    17    42    40    1
    18    17    13    1
    19    17    18    1
    20    25    24   ar
    21    14    13   ar
    22    14    15   ar
    23     8     7    1
    24    13    12   ar
    25     7     2    1
    26    40    41    1
    27    31    29    1
    28    33    38    1
    29    22    15    1
    30    22    23   ar
    31     3     2   ar
    32     3     4   ar
    33    15    16   ar
    34    24    23   ar
    35    24    29    1
    36    30    29    1
    37    23    27    1
    38    12    16   ar
    39    12     4    1
    40     2     1   ar
    41     4     5   ar
    42    27    28    1
    43    38    39    1
    44     1     5   ar
    45     1     6    1
