@<TRIPOS>MOLECULE
mol_data/opt/m06hf/geoms/mol2/5gh5gh-5gh5gh-.out
 42 45 0 0 0
SMALL
GASTEIGER

@<TRIPOS>ATOM
      1 C          -1.0046   -1.6566    2.0264 C.ar    1  LIG1       -0.0087
      2 C          -0.6757   -1.8090    0.7173 C.ar    1  LIG1        0.0331
      3 C          -0.5215   -0.5471    0.0310 C.ar    1  LIG1        0.0534
      4 C          -0.7166    0.5138    0.8728 C.ar    1  LIG1        0.0487
      5 S          -1.1188   -0.0060    2.4820 S.2     1  LIG1       -0.0931
      6 H          -1.1779   -2.4445    2.7419 H       1  LIG1        0.0705
      7 S          -0.5414   -3.3787   -0.1014 S.3     1  LIG1       -0.1403
      8 H           0.7879   -3.3471   -0.2696 H       1  LIG1        0.1072
      9 N          -0.1846   -0.4672   -1.3118 N.pl3   1  LIG1       -0.3562
     10 H          -0.4563   -1.2868   -1.8420 H       1  LIG1        0.1424
     11 H          -0.4567    0.4011   -1.7566 H       1  LIG1        0.1424
     12 C          -0.6136    1.9225    0.4952 C.ar    1  LIG1        0.0433
     13 C           0.4396    2.5247   -0.1357 C.ar    1  LIG1        0.0414
     14 C           0.1932    3.9163   -0.4291 C.ar    1  LIG1        0.0540
     15 C          -1.0238    4.3318    0.0380 C.ar    1  LIG1        0.0493
     16 S          -1.9113    3.0331    0.7722 S.2     1  LIG1       -0.0841
     17 S           1.9649    1.7177   -0.5497 S.3     1  LIG1       -0.1397
     18 H           2.7237    2.6644    0.0244 H       1  LIG1        0.1072
     19 N           1.1361    4.7144   -1.0653 N.pl3   1  LIG1       -0.3562
     20 H           1.7086    4.2055   -1.7290 H       1  LIG1        0.1424
     21 H           0.7502    5.5656   -1.4577 H       1  LIG1        0.1424
     22 C          -1.5449    5.6938   -0.0586 C.ar    1  LIG1        0.0433
     23 C          -0.9169    6.8430    0.3356 C.ar    1  LIG1        0.0414
     24 C          -1.6847    8.0298    0.0416 C.ar    1  LIG1        0.0540
     25 C          -2.8966    7.7332   -0.5180 C.ar    1  LIG1        0.0493
     26 S          -3.0969    6.0248   -0.7559 S.2     1  LIG1       -0.0841
     27 S           0.6571    6.9059    1.1528 S.3     1  LIG1       -0.1397
     28 H           0.2179    7.7310    2.1150 H       1  LIG1        0.1072
     29 N          -1.2228    9.3023    0.3618 N.pl3   1  LIG1       -0.3562
     30 H          -0.2178    9.3947    0.2651 H       1  LIG1        0.1424
     31 H          -1.7253   10.0447   -0.1111 H       1  LIG1        0.1424
     32 C          -3.9233    8.7045   -0.8907 C.ar    1  LIG1        0.0427
     33 C          -4.4699    9.6751   -0.0988 C.ar    1  LIG1        0.0408
     34 C          -5.4477   10.4818   -0.7966 C.ar    1  LIG1        0.0456
     35 C          -5.6241   10.0696   -2.0805 C.ar    1  LIG1       -0.0020
     36 S          -4.6009    8.7399   -2.4845 S.2     1  LIG1       -0.0931
     37 H          -6.2998   10.4820   -2.8121 H       1  LIG1        0.0712
     38 S          -4.0818    9.9232    1.6130 S.3     1  LIG1       -0.1397
     39 H          -5.3652   10.1069    1.9574 H       1  LIG1        0.1072
     40 N          -6.1541   11.4881   -0.1214 N.pl3   1  LIG1       -0.3567
     41 H          -5.5418   12.0945    0.4150 H       1  LIG1        0.1424
     42 H          -6.7568   12.0299   -0.7275 H       1  LIG1        0.1424
@<TRIPOS>BOND
     1    37    35    1
     2    36    35   ar
     3    36    32   ar
     4    35    34   ar
     5    10     9    1
     6    11     9    1
     7    20    19    1
     8    21    19    1
     9     9     3    1
    10    19    14    1
    11    32    25    1
    12    32    33   ar
    13    34    40    1
    14    34    33   ar
    15    26    25   ar
    16    26    22   ar
    17    42    40    1
    18    17    13    1
    19    17    18    1
    20    25    24   ar
    21    14    13   ar
    22    14    15   ar
    23     8     7    1
    24    13    12   ar
    25    40    41    1
    26    31    29    1
    27     7     2    1
    28    33    38    1
    29    22    15    1
    30    22    23   ar
    31     3     2   ar
    32     3     4   ar
    33    15    16   ar
    34    24    23   ar
    35    24    29    1
    36    30    29    1
    37    23    27    1
    38    12    16   ar
    39    12     4    1
    40     2     1   ar
    41     4     5   ar
    42    27    28    1
    43    38    39    1
    44     1     5   ar
    45     1     6    1
