@<TRIPOS>MOLECULE
mol_data/opt/m06hf/geoms/mol2/5gh5gh-5gh-5gh.out
 42 45 0 0 0
SMALL
GASTEIGER

@<TRIPOS>ATOM
      1 C          -1.0203   -1.6607    2.0157 C.ar    1  LIG1       -0.0087
      2 C          -0.6812   -1.8104    0.7089 C.ar    1  LIG1        0.0331
      3 C          -0.5221   -0.5471    0.0262 C.ar    1  LIG1        0.0534
      4 C          -0.7238    0.5121    0.8687 C.ar    1  LIG1        0.0487
      5 S          -1.1385   -0.0110    2.4737 S.2     1  LIG1       -0.0931
      6 H          -1.1989   -2.4500    2.7284 H       1  LIG1        0.0705
      7 S          -0.5399   -3.3784   -0.1117 S.3     1  LIG1       -0.1403
      8 H           0.7905   -3.3459   -0.2699 H       1  LIG1        0.1072
      9 N          -0.1750   -0.4646   -1.3138 N.pl3   1  LIG1       -0.3562
     10 H          -0.4425   -1.2831   -1.8477 H       1  LIG1        0.1424
     11 H          -0.4440    0.4046   -1.7589 H       1  LIG1        0.1424
     12 C          -0.6181    1.9215    0.4948 C.ar    1  LIG1        0.0433
     13 C           0.4400    2.5252   -0.1267 C.ar    1  LIG1        0.0414
     14 C           0.1956    3.9174   -0.4191 C.ar    1  LIG1        0.0540
     15 C          -1.0249    4.3318    0.0397 C.ar    1  LIG1        0.0493
     16 S          -1.9179    3.0315    0.7641 S.2     1  LIG1       -0.0841
     17 S           1.9686    1.7192   -0.5304 S.3     1  LIG1       -0.1397
     18 H           2.7227    2.6647    0.0518 H       1  LIG1        0.1072
     19 N           1.1434    4.7170   -1.0462 N.pl3   1  LIG1       -0.3562
     20 H           1.7213    4.2095   -1.7063 H       1  LIG1        0.1424
     21 H           0.7604    5.5689   -1.4398 H       1  LIG1        0.1424
     22 C          -1.5452    5.6941   -0.0578 C.ar    1  LIG1        0.0433
     23 C          -0.9202    6.8423    0.3437 C.ar    1  LIG1        0.0414
     24 C          -1.6858    8.0298    0.0466 C.ar    1  LIG1        0.0540
     25 C          -2.8934    7.7345   -0.5228 C.ar    1  LIG1        0.0493
     26 S          -3.0919    6.0266   -0.7662 S.2     1  LIG1       -0.0841
     27 S           0.6475    6.9033    1.1731 S.3     1  LIG1       -0.1397
     28 H           0.2008    7.7262    2.1336 H       1  LIG1        0.1072
     29 N          -1.2265    9.3015    0.3734 N.pl3   1  LIG1       -0.3562
     30 H          -0.2207    9.3942    0.2847 H       1  LIG1        0.1424
     31 H          -1.7253   10.0451   -0.1016 H       1  LIG1        0.1424
     32 C          -3.9173    8.7067   -0.9009 C.ar    1  LIG1        0.0427
     33 C          -4.4698    9.6755   -0.1109 C.ar    1  LIG1        0.0408
     34 C          -5.4423   10.4839   -0.8141 C.ar    1  LIG1        0.0456
     35 C          -5.6089   10.0748   -2.1003 C.ar    1  LIG1       -0.0020
     36 S          -4.5828    8.7459   -2.4997 S.2     1  LIG1       -0.0931
     37 H          -6.2789   10.4890   -2.8361 H       1  LIG1        0.0712
     38 S          -4.0945    9.9196    1.6044 S.3     1  LIG1       -0.1397
     39 H          -5.3804   10.1026    1.9395 H       1  LIG1        0.1072
     40 N          -6.1536   11.4887   -0.1419 N.pl3   1  LIG1       -0.3567
     41 H          -5.5454   12.0937    0.4005 H       1  LIG1        0.1424
     42 H          -6.7518   12.0319   -0.7513 H       1  LIG1        0.1424
@<TRIPOS>BOND
     1    37    35    1
     2    36    35   ar
     3    36    32   ar
     4    35    34   ar
     5    10     9    1
     6    11     9    1
     7    20    19    1
     8    21    19    1
     9     9     3    1
    10    19    14    1
    11    32    25    1
    12    32    33   ar
    13    34    40    1
    14    34    33   ar
    15    26    25   ar
    16    26    22   ar
    17    42    40    1
    18    17    13    1
    19    17    18    1
    20    25    24   ar
    21    14    13   ar
    22    14    15   ar
    23     8     7    1
    24    40    41    1
    25    13    12   ar
    26     7     2    1
    27    33    38    1
    28    31    29    1
    29    22    15    1
    30    22    23   ar
    31     3     2   ar
    32     3     4   ar
    33    15    16   ar
    34    24    23   ar
    35    24    29    1
    36    30    29    1
    37    23    27    1
    38    12    16   ar
    39    12     4    1
    40     2     1   ar
    41     4     5   ar
    42    27    28    1
    43    38    39    1
    44     1     5   ar
    45     1     6    1
