@<TRIPOS>MOLECULE
mol_data/opt/m06hf/geoms/mol2/5gh5gh.out
 22 23 0 0 0
SMALL
GASTEIGER

@<TRIPOS>ATOM
      1 C          -1.8961   -1.7544    0.7047 C.ar    1  LIG1       -0.0087
      2 C          -0.7144   -1.7729    0.0347 C.ar    1  LIG1        0.0331
      3 C          -0.2613   -0.4510   -0.3334 C.ar    1  LIG1        0.0534
      4 C          -1.1224    0.5189    0.1013 C.ar    1  LIG1        0.0487
      5 S          -2.4884   -0.1609    0.9359 S.2     1  LIG1       -0.0931
      6 H          -2.4384   -2.6095    1.0747 H       1  LIG1        0.0705
      7 S           0.1321   -3.2596   -0.4399 S.3     1  LIG1       -0.1403
      8 H           1.1353   -3.1625    0.4436 H       1  LIG1        0.1072
      9 N           0.9240   -0.2333   -1.0180 N.pl3   1  LIG1       -0.3562
     10 H           1.2200   -1.0242   -1.5770 H       1  LIG1        0.1424
     11 H           0.9623    0.6479   -1.5157 H       1  LIG1        0.1424
     12 C          -0.9529    1.9570   -0.0962 C.ar    1  LIG1        0.0426
     13 C           0.1484    2.7071    0.2053 C.ar    1  LIG1        0.0408
     14 C          -0.0012    4.0971   -0.1676 C.ar    1  LIG1        0.0456
     15 C          -1.2226    4.3495   -0.7093 C.ar    1  LIG1       -0.0020
     16 S          -2.1945    2.9267   -0.8158 S.2     1  LIG1       -0.0931
     17 H          -1.6016    5.2976   -1.0543 H       1  LIG1        0.0712
     18 S           1.6075    2.0825    0.9958 S.3     1  LIG1       -0.1397
     19 H           1.7146    3.1387    1.8170 H       1  LIG1        0.1072
     20 N           1.0098    5.0255    0.1188 N.pl3   1  LIG1       -0.3567
     21 H           1.9274    4.6939   -0.1600 H       1  LIG1        0.1424
     22 H           0.8274    5.9455   -0.2604 H       1  LIG1        0.1424
@<TRIPOS>BOND
     1    10     9    1
     2    11     9    1
     3    17    15    1
     4     9     3    1
     5    16    15   ar
     6    16    12   ar
     7    15    14   ar
     8     7     2    1
     9     7     8    1
    10     3     2   ar
    11     3     4   ar
    12    22    20    1
    13    14    20    1
    14    14    13   ar
    15    21    20    1
    16    12     4    1
    17    12    13   ar
    18     2     1   ar
    19     4     5   ar
    20    13    18    1
    21     1     5   ar
    22     1     6    1
    23    18    19    1
