@<TRIPOS>MOLECULE
mol_data/opt/m06hf/geoms/mol2/5gh5gh-.out
 22 23 0 0 0
SMALL
GASTEIGER

@<TRIPOS>ATOM
      1 C          -1.8905   -1.7533    0.7164 C.ar    1  LIG1       -0.0087
      2 C          -0.7138   -1.7731    0.0377 C.ar    1  LIG1        0.0331
      3 C          -0.2634   -0.4518   -0.3363 C.ar    1  LIG1        0.0534
      4 C          -1.1213    0.5189    0.1030 C.ar    1  LIG1        0.0487
      5 S          -2.4811   -0.1594    0.9490 S.2     1  LIG1       -0.0931
      6 H          -2.4300   -2.6077    1.0921 H       1  LIG1        0.0705
      7 S           0.1292   -3.2606   -0.4404 S.3     1  LIG1       -0.1403
      8 H           1.1389   -3.1618    0.4354 H       1  LIG1        0.1072
      9 N           0.9167   -0.2354   -1.0301 N.pl3   1  LIG1       -0.3562
     10 H           1.2086   -1.0273   -1.5898 H       1  LIG1        0.1424
     11 H           0.9512    0.6449   -1.5298 H       1  LIG1        0.1424
     12 C          -0.9534    1.9566   -0.0985 C.ar    1  LIG1        0.0426
     13 C           0.1501    2.7073    0.1934 C.ar    1  LIG1        0.0408
     14 C          -0.0023    4.0966   -0.1809 C.ar    1  LIG1        0.0456
     15 C          -1.2277    4.3479   -0.7140 C.ar    1  LIG1       -0.0020
     16 S          -2.2003    2.9250   -0.8106 S.2     1  LIG1       -0.0931
     17 H          -1.6093    5.2954   -1.0580 H       1  LIG1        0.0712
     18 S           1.6151    2.0842    0.9742 S.3     1  LIG1       -0.1397
     19 H           1.7282    3.1420    1.7926 H       1  LIG1        0.1072
     20 N           1.0108    5.0256    0.0962 N.pl3   1  LIG1       -0.3567
     21 H           1.9263    4.6934   -0.1888 H       1  LIG1        0.1424
     22 H           0.8255    5.9448   -0.2835 H       1  LIG1        0.1424
@<TRIPOS>BOND
     1    10     9    1
     2    11     9    1
     3    17    15    1
     4     9     3    1
     5    16    15   ar
     6    16    12   ar
     7    15    14   ar
     8     7     2    1
     9     7     8    1
    10     3     2   ar
    11     3     4   ar
    12    22    20    1
    13    21    20    1
    14    14    20    1
    15    14    13   ar
    16    12     4    1
    17    12    13   ar
    18     2     1   ar
    19     4     5   ar
    20    13    18    1
    21     1     5   ar
    22     1     6    1
    23    18    19    1
