@<TRIPOS>MOLECULE
mol_data/opt/m06hf/geoms/mol2/5gh5gh5gh5gh-.out
 42 45 0 0 0
SMALL
GASTEIGER

@<TRIPOS>ATOM
      1 C          -1.0221   -1.6505    2.0317 C.ar    1  LIG1       -0.0087
      2 C          -0.6824   -1.8067    0.7258 C.ar    1  LIG1        0.0331
      3 C          -0.5224   -0.5468    0.0370 C.ar    1  LIG1        0.0534
      4 C          -0.7245    0.5166    0.8741 C.ar    1  LIG1        0.0487
      5 S          -1.1399    0.0015    2.4815 S.2     1  LIG1       -0.0931
      6 H          -1.2012   -2.4362    2.7481 H       1  LIG1        0.0705
      7 S          -0.5414   -3.3788   -0.0871 S.3     1  LIG1       -0.1403
      8 H           0.7892   -3.3477   -0.2445 H       1  LIG1        0.1072
      9 N          -0.1745   -0.4710   -1.3031 N.pl3   1  LIG1       -0.3562
     10 H          -0.4419   -1.2920   -1.8332 H       1  LIG1        0.1424
     11 H          -0.4429    0.3961   -1.7527 H       1  LIG1        0.1424
     12 C          -0.6183    1.9241    0.4933 C.ar    1  LIG1        0.0433
     13 C           0.4402    2.5244   -0.1308 C.ar    1  LIG1        0.0414
     14 C           0.1962    3.9152   -0.4303 C.ar    1  LIG1        0.0540
     15 C          -1.0245    4.3321    0.0256 C.ar    1  LIG1        0.0493
     16 S          -1.9181    3.0356    0.7563 S.2     1  LIG1       -0.0841
     17 S           1.9687    1.7162   -0.5299 S.3     1  LIG1       -0.1397
     18 H           2.7228    2.6645    0.0477 H       1  LIG1        0.1072
     19 N           1.1444    4.7114   -1.0611 N.pl3   1  LIG1       -0.3562
     20 H           1.7222    4.2005   -1.7186 H       1  LIG1        0.1424
     21 H           0.7618    5.5614   -1.4591 H       1  LIG1        0.1424
     22 C          -1.5448    5.6938   -0.0793 C.ar    1  LIG1        0.0433
     23 C          -0.9200    6.8441    0.3167 C.ar    1  LIG1        0.0414
     24 C          -1.6853    8.0301    0.0128 C.ar    1  LIG1        0.0540
     25 C          -2.8925    7.7319   -0.5559 C.ar    1  LIG1        0.0493
     26 S          -3.0910    6.0228   -0.7904 S.2     1  LIG1       -0.0841
     27 S           0.6472    6.9094    1.1467 S.3     1  LIG1       -0.1397
     28 H           0.2001    7.7374    2.1027 H       1  LIG1        0.1072
     29 N          -1.2260    9.3035    0.3331 N.pl3   1  LIG1       -0.3562
     30 H          -0.2202    9.3956    0.2445 H       1  LIG1        0.1424
     31 H          -1.7245   10.0445   -0.1461 H       1  LIG1        0.1424
     32 C          -3.9160    8.7021   -0.9399 C.ar    1  LIG1        0.0427
     33 C          -4.4691    9.6751   -0.1553 C.ar    1  LIG1        0.0408
     34 C          -5.4411   10.4797   -0.8635 C.ar    1  LIG1        0.0456
     35 C          -5.6069   10.0638   -2.1476 C.ar    1  LIG1       -0.0020
     36 S          -4.5804    8.7329   -2.5393 S.2     1  LIG1       -0.0931
     37 H          -6.2765   10.4741   -2.8860 H       1  LIG1        0.0712
     38 S          -4.0951    9.9281    1.5589 S.3     1  LIG1       -0.1397
     39 H          -5.3814   10.1128    1.8922 H       1  LIG1        0.1072
     40 N          -6.1529   11.4881   -0.1971 N.pl3   1  LIG1       -0.3567
     41 H          -5.5452   12.0959    0.3427 H       1  LIG1        0.1424
     42 H          -6.7506   12.0281   -0.8097 H       1  LIG1        0.1424
@<TRIPOS>BOND
     1    37    35    1
     2    36    35   ar
     3    36    32   ar
     4    35    34   ar
     5    10     9    1
     6    11     9    1
     7    20    19    1
     8    21    19    1
     9     9     3    1
    10    19    14    1
    11    32    25    1
    12    32    33   ar
    13    34    40    1
    14    34    33   ar
    15    42    40    1
    16    26    25   ar
    17    26    22   ar
    18    25    24   ar
    19    17    13    1
    20    17    18    1
    21    14    13   ar
    22    14    15   ar
    23     8     7    1
    24    40    41    1
    25    33    38    1
    26    31    29    1
    27    13    12   ar
    28     7     2    1
    29    22    15    1
    30    22    23   ar
    31    24    23   ar
    32    24    29    1
    33    15    16   ar
    34     3     2   ar
    35     3     4   ar
    36    30    29    1
    37    23    27    1
    38    12    16   ar
    39    12     4    1
    40     2     1   ar
    41     4     5   ar
    42    27    28    1
    43    38    39    1
    44     1     5   ar
    45     1     6    1
