@<TRIPOS>MOLECULE
mol_data/opt/m06hf/geoms/mol2/5gh5gh5gh-.out
 32 34 0 0 0
SMALL
GASTEIGER

@<TRIPOS>ATOM
      1 C          -1.5977   -1.7522    1.3449 C.ar    1  LIG1       -0.0087
      2 C          -0.7558   -1.8262    0.2814 C.ar    1  LIG1        0.0331
      3 C          -0.3886   -0.5256   -0.2289 C.ar    1  LIG1        0.0534
      4 C          -0.9608    0.4825    0.4985 C.ar    1  LIG1        0.0487
      5 S          -1.9576   -0.1329    1.7812 S.2     1  LIG1       -0.0931
      6 H          -2.0142   -2.5820    1.8930 H       1  LIG1        0.0705
      7 S          -0.2332   -3.3481   -0.4677 S.3     1  LIG1       -0.1403
      8 H           1.0350   -3.3012   -0.0402 H       1  LIG1        0.1072
      9 N           0.4673   -0.3616   -1.3075 N.pl3   1  LIG1       -0.3562
     10 H           0.4696   -1.1512   -1.9421 H       1  LIG1        0.1424
     11 H           0.3708    0.5292   -1.7804 H       1  LIG1        0.1424
     12 C          -0.7833    1.9112    0.2467 C.ar    1  LIG1        0.0433
     13 C           0.4024    2.5819    0.1296 C.ar    1  LIG1        0.0414
     14 C           0.2248    3.9785   -0.1904 C.ar    1  LIG1        0.0540
     15 C          -1.0957    4.3280   -0.2543 C.ar    1  LIG1        0.0493
     16 S          -2.1362    2.9630    0.0073 S.2     1  LIG1       -0.0841
     17 S           2.0019    1.8498    0.3574 S.3     1  LIG1       -0.1397
     18 H           2.4286    2.8348    1.1626 H       1  LIG1        0.1072
     19 N           1.3051    4.8393   -0.3489 N.pl3   1  LIG1       -0.3562
     20 H           2.1134    4.3927   -0.7670 H       1  LIG1        0.1424
     21 H           1.0660    5.7113   -0.8069 H       1  LIG1        0.1424
     22 C          -1.6079    5.6706   -0.5227 C.ar    1  LIG1        0.0427
     23 C          -1.2716    6.8286    0.1195 C.ar    1  LIG1        0.0408
     24 C          -1.9432    7.9875   -0.4285 C.ar    1  LIG1        0.0456
     25 C          -2.7854    7.6558   -1.4432 C.ar    1  LIG1       -0.0020
     26 S          -2.7619    5.9636   -1.7830 S.2     1  LIG1       -0.0931
     27 H          -3.4153    8.3200   -2.0124 H       1  LIG1        0.0712
     28 S          -0.1740    6.9384    1.5064 S.3     1  LIG1       -0.1397
     29 H          -0.9232    7.8694    2.1155 H       1  LIG1        0.1072
     30 N          -1.7599    9.2551    0.1470 N.pl3   1  LIG1       -0.3567
     31 H          -0.7785    9.5017    0.2327 H       1  LIG1        0.1424
     32 H          -2.2713    9.9868   -0.3295 H       1  LIG1        0.1424
@<TRIPOS>BOND
     1    27    25    1
     2    10     9    1
     3    26    25   ar
     4    26    22   ar
     5    11     9    1
     6    25    24   ar
     7     9     3    1
     8    21    19    1
     9    20    19    1
    10    22    15    1
    11    22    23   ar
    12     7     8    1
    13     7     2    1
    14    24    23   ar
    15    24    30    1
    16    19    14    1
    17    32    30    1
    18    15    14   ar
    19    15    16   ar
    20     3     2   ar
    21     3     4   ar
    22    14    13   ar
    23    16    12   ar
    24    23    28    1
    25    13    12   ar
    26    13    17    1
    27    30    31    1
    28    12     4    1
    29     2     1   ar
    30    17    18    1
    31     4     5   ar
    32     1     5   ar
    33     1     6    1
    34    28    29    1
