@<TRIPOS>MOLECULE
mol_data/opt/m06hf/geoms/mol2/5gh5gh-5gh-.out
 32 34 0 0 0
SMALL
GASTEIGER

@<TRIPOS>ATOM
      1 C          -1.5776   -1.7549    1.3561 C.ar    1  LIG1       -0.0087
      2 C          -0.7481   -1.8269    0.2828 C.ar    1  LIG1        0.0331
      3 C          -0.3877   -0.5253   -0.2300 C.ar    1  LIG1        0.0534
      4 C          -0.9522    0.4814    0.5054 C.ar    1  LIG1        0.0487
      5 S          -1.9335   -0.1364    1.7988 S.2     1  LIG1       -0.0931
      6 H          -1.9872   -2.5857    1.9078 H       1  LIG1        0.0705
      7 S          -0.2331   -3.3474   -0.4744 S.3     1  LIG1       -0.1403
      8 H           1.0398   -3.3001   -0.0617 H       1  LIG1        0.1072
      9 N           0.4554   -0.3592   -1.3182 N.pl3   1  LIG1       -0.3562
     10 H           0.4510   -1.1481   -1.9539 H       1  LIG1        0.1424
     11 H           0.3528    0.5321   -1.7889 H       1  LIG1        0.1424
     12 C          -0.7786    1.9105    0.2534 C.ar    1  LIG1        0.0433
     13 C           0.4052    2.5823    0.1234 C.ar    1  LIG1        0.0414
     14 C           0.2229    3.9792   -0.1926 C.ar    1  LIG1        0.0540
     15 C          -1.0986    4.3278   -0.2407 C.ar    1  LIG1        0.0493
     16 S          -2.1349    2.9617    0.0312 S.2     1  LIG1       -0.0841
     17 S           2.0077    1.8511    0.3317 S.3     1  LIG1       -0.1397
     18 H           2.4430    2.8353    1.1332 H       1  LIG1        0.1072
     19 N           1.3006    4.8410   -0.3625 N.pl3   1  LIG1       -0.3562
     20 H           2.1043    4.3955   -0.7904 H       1  LIG1        0.1424
     21 H           1.0556    5.7134   -0.8167 H       1  LIG1        0.1424
     22 C          -1.6148    5.6703   -0.5014 C.ar    1  LIG1        0.0427
     23 C          -1.2718    6.8278    0.1383 C.ar    1  LIG1        0.0408
     24 C          -1.9506    7.9869   -0.4004 C.ar    1  LIG1        0.0456
     25 C          -2.8043    7.6559   -1.4056 C.ar    1  LIG1       -0.0020
     26 S          -2.7837    5.9642   -1.7477 S.2     1  LIG1       -0.0931
     27 H          -3.4413    8.3204   -1.9666 H       1  LIG1        0.0712
     28 S          -0.1581    6.9366    1.5124 S.3     1  LIG1       -0.1397
     29 H          -0.9007    7.8663    2.1314 H       1  LIG1        0.1072
     30 N          -1.7615    9.2539    0.1746 N.pl3   1  LIG1       -0.3567
     31 H          -0.7792    9.5010    0.2492 H       1  LIG1        0.1424
     32 H          -2.2788    9.9859   -0.2951 H       1  LIG1        0.1424
@<TRIPOS>BOND
     1    27    25    1
     2    10     9    1
     3    11     9    1
     4    26    25   ar
     5    26    22   ar
     6    25    24   ar
     7     9     3    1
     8    21    19    1
     9    20    19    1
    10    22    15    1
    11    22    23   ar
    12     7     8    1
    13     7     2    1
    14    24    23   ar
    15    24    30    1
    16    19    14    1
    17    32    30    1
    18    15    14   ar
    19    15    16   ar
    20     3     2   ar
    21     3     4   ar
    22    14    13   ar
    23    16    12   ar
    24    13    12   ar
    25    13    17    1
    26    23    28    1
    27    30    31    1
    28    12     4    1
    29     2     1   ar
    30    17    18    1
    31     4     5   ar
    32     1     5   ar
    33     1     6    1
    34    28    29    1
