@<TRIPOS>MOLECULE
mol_data/opt/m06hf/geoms/mol2/5gh5gh-5gh.out
 32 34 0 0 0
SMALL
GASTEIGER

@<TRIPOS>ATOM
      1 C          -1.5787   -1.7535    1.3566 C.ar    1  LIG1       -0.0087
      2 C          -0.7505   -1.8268    0.2824 C.ar    1  LIG1        0.0331
      3 C          -0.3901   -0.5258   -0.2319 C.ar    1  LIG1        0.0534
      4 C          -0.9531    0.4818    0.5033 C.ar    1  LIG1        0.0487
      5 S          -1.9333   -0.1344    1.7984 S.2     1  LIG1       -0.0931
      6 H          -1.9880   -2.5836    1.9095 H       1  LIG1        0.0705
      7 S          -0.2372   -3.3482   -0.4742 S.3     1  LIG1       -0.1403
      8 H           1.0362   -3.3013   -0.0629 H       1  LIG1        0.1072
      9 N           0.4518   -0.3611   -1.3213 N.pl3   1  LIG1       -0.3562
     10 H           0.4462   -1.1505   -1.9563 H       1  LIG1        0.1424
     11 H           0.3491    0.5299   -1.7925 H       1  LIG1        0.1424
     12 C          -0.7791    1.9106    0.2499 C.ar    1  LIG1        0.0433
     13 C           0.4049    2.5817    0.1180 C.ar    1  LIG1        0.0414
     14 C           0.2230    3.9784   -0.1989 C.ar    1  LIG1        0.0540
     15 C          -1.0984    4.3276   -0.2458 C.ar    1  LIG1        0.0493
     16 S          -2.1351    2.9624    0.0285 S.2     1  LIG1       -0.0841
     17 S           2.0073    1.8497    0.3250 S.3     1  LIG1       -0.1397
     18 H           2.4441    2.8344    1.1250 H       1  LIG1        0.1072
     19 N           1.3010    4.8394   -0.3709 N.pl3   1  LIG1       -0.3562
     20 H           2.1040    4.3932   -0.7994 H       1  LIG1        0.1424
     21 H           1.0559    5.7116   -0.8254 H       1  LIG1        0.1424
     22 C          -1.6142    5.6702   -0.5070 C.ar    1  LIG1        0.0427
     23 C          -1.2698    6.8280    0.1313 C.ar    1  LIG1        0.0408
     24 C          -1.9486    7.9870   -0.4075 C.ar    1  LIG1        0.0456
     25 C          -2.8037    7.6557   -1.4114 C.ar    1  LIG1       -0.0020
     26 S          -2.7843    5.9637   -1.7522 S.2     1  LIG1       -0.0931
     27 H          -3.4410    8.3200   -1.9722 H       1  LIG1        0.0712
     28 S          -0.1545    6.9374    1.5040 S.3     1  LIG1       -0.1397
     29 H          -0.8960    7.8679    2.1232 H       1  LIG1        0.1072
     30 N          -1.7581    9.2544    0.1663 N.pl3   1  LIG1       -0.3567
     31 H          -0.7757    9.5010    0.2395 H       1  LIG1        0.1424
     32 H          -2.2755    9.9863   -0.3035 H       1  LIG1        0.1424
@<TRIPOS>BOND
     1    27    25    1
     2    10     9    1
     3    11     9    1
     4    26    25   ar
     5    26    22   ar
     6    25    24   ar
     7     9     3    1
     8    21    19    1
     9    20    19    1
    10    22    15    1
    11    22    23   ar
    12     7     8    1
    13     7     2    1
    14    24    23   ar
    15    24    30    1
    16    19    14    1
    17    32    30    1
    18    15    14   ar
    19    15    16   ar
    20     3     2   ar
    21     3     4   ar
    22    14    13   ar
    23    16    12   ar
    24    13    12   ar
    25    13    17    1
    26    23    28    1
    27    30    31    1
    28    12     4    1
    29     2     1   ar
    30    17    18    1
    31     4     5   ar
    32     1     5   ar
    33     1     6    1
    34    28    29    1
