@<TRIPOS>MOLECULE
mol_data/opt/m06hf/geoms/mol2/5gh5gh5gh.out
 32 34 0 0 0
SMALL
GASTEIGER

@<TRIPOS>ATOM
      1 C          -1.5900   -1.7478    1.3621 C.ar    1  LIG1       -0.0087
      2 C          -0.7518   -1.8253    0.2959 C.ar    1  LIG1        0.0331
      3 C          -0.3871   -0.5262   -0.2204 C.ar    1  LIG1        0.0534
      4 C          -0.9574    0.4842    0.5054 C.ar    1  LIG1        0.0487
      5 S          -1.9493   -0.1272    1.7938 S.2     1  LIG1       -0.0931
      6 H          -2.0041   -2.5759    1.9146 H       1  LIG1        0.0705
      7 S          -0.2309   -3.3495   -0.4495 S.3     1  LIG1       -0.1403
      8 H           1.0386   -3.3004   -0.0265 H       1  LIG1        0.1072
      9 N           0.4649   -0.3656   -1.3025 N.pl3   1  LIG1       -0.3562
     10 H           0.4655   -1.1576   -1.9343 H       1  LIG1        0.1424
     11 H           0.3663    0.5234   -1.7783 H       1  LIG1        0.1424
     12 C          -0.7815    1.9120    0.2478 C.ar    1  LIG1        0.0433
     13 C           0.4035    2.5829    0.1241 C.ar    1  LIG1        0.0414
     14 C           0.2240    3.9782   -0.2002 C.ar    1  LIG1        0.0540
     15 C          -1.0969    4.3268   -0.2609 C.ar    1  LIG1        0.0493
     16 S          -2.1357    2.9623    0.0093 S.2     1  LIG1       -0.0841
     17 S           2.0041    1.8525    0.3491 S.3     1  LIG1       -0.1397
     18 H           2.4332    2.8406    1.1490 H       1  LIG1        0.1072
     19 N           1.3033    4.8390   -0.3657 N.pl3   1  LIG1       -0.3562
     20 H           2.1104    4.3913   -0.7848 H       1  LIG1        0.1424
     21 H           1.0622    5.7092   -0.8261 H       1  LIG1        0.1424
     22 C          -1.6108    5.6681   -0.5326 C.ar    1  LIG1        0.0427
     23 C          -1.2728    6.8287    0.1041 C.ar    1  LIG1        0.0408
     24 C          -1.9469    7.9852   -0.4458 C.ar    1  LIG1        0.0456
     25 C          -2.7924    7.6493   -1.4563 C.ar    1  LIG1       -0.0020
     26 S          -2.7693    5.9559   -1.7899 S.2     1  LIG1       -0.0931
     27 H          -3.4247    8.3110   -2.0258 H       1  LIG1        0.0712
     28 S          -0.1704    6.9442    1.4868 S.3     1  LIG1       -0.1397
     29 H          -0.9180    7.8770    2.0951 H       1  LIG1        0.1072
     30 N          -1.7623    9.2550    0.1244 N.pl3   1  LIG1       -0.3567
     31 H          -0.7807    9.5023    0.2059 H       1  LIG1        0.1424
     32 H          -2.2755    9.9848   -0.3532 H       1  LIG1        0.1424
@<TRIPOS>BOND
     1    27    25    1
     2    10     9    1
     3    26    25   ar
     4    26    22   ar
     5    11     9    1
     6    25    24   ar
     7     9     3    1
     8    21    19    1
     9    20    19    1
    10    22    15    1
    11    22    23   ar
    12     7     8    1
    13     7     2    1
    14    24    23   ar
    15    24    30    1
    16    19    14    1
    17    32    30    1
    18    15    14   ar
    19    15    16   ar
    20     3     2   ar
    21     3     4   ar
    22    14    13   ar
    23    16    12   ar
    24    23    28    1
    25    13    12   ar
    26    13    17    1
    27    30    31    1
    28    12     4    1
    29     2     1   ar
    30    17    18    1
    31     4     5   ar
    32     1     5   ar
    33     1     6    1
    34    28    29    1
