@<TRIPOS>MOLECULE
mol_data/opt/m06hf/geoms/mol2/5gi.out
 13 13 0 0 0
SMALL
GASTEIGER

@<TRIPOS>ATOM
      1 C          -2.0965   -1.7142    0.0103 C.ar    1  LIG1       -0.0109
      2 C          -0.7400   -1.6444    0.0771 C.ar    1  LIG1        0.0147
      3 C          -0.2397   -0.2889    0.0762 C.ar    1  LIG1       -0.0303
      4 C          -1.2607    0.6050   -0.0032 C.ar    1  LIG1       -0.0204
      5 S          -2.8066   -0.1530   -0.0589 S.2     1  LIG1       -0.1037
      6 H          -2.7010   -2.6067   -0.0043 H       1  LIG1        0.0704
      7 H          -1.1853    1.6807   -0.0244 H       1  LIG1        0.0696
      8 S           0.2807   -3.0945    0.2368 S.3     1  LIG1       -0.1418
      9 H           0.8523   -3.0138   -0.9726 H       1  LIG1        0.1071
     10 C           1.2265    0.0661    0.1513 C.3     1  LIG1       -0.0382
     11 H           1.3482    1.1463    0.2184 H       1  LIG1        0.0278
     12 H           1.7521   -0.2910   -0.7364 H       1  LIG1        0.0278
     13 H           1.6791   -0.4023    1.0259 H       1  LIG1        0.0278
@<TRIPOS>BOND
     1     9     8    1
     2    12    10    1
     3     5     4   ar
     4     5     1   ar
     5     7     4    1
     6     6     1    1
     7     4     3   ar
     8     1     2   ar
     9     3     2   ar
    10     3    10    1
    11     2     8    1
    12    10    11    1
    13    10    13    1
