@<TRIPOS>MOLECULE
mol_data/opt/m06hf/geoms/mol2/5gi5gi-5gi5gi.out
 46 49 0 0 0
SMALL
GASTEIGER

@<TRIPOS>ATOM
      1 C          -1.1036   -1.4035   -2.4078 C.ar    1  LIG1       -0.0103
      2 C          -0.8489   -1.6813   -1.1012 C.ar    1  LIG1        0.0153
      3 C          -0.6296   -0.5025   -0.2982 C.ar    1  LIG1       -0.0220
      4 C          -0.7104    0.6300   -1.0578 C.ar    1  LIG1        0.0309
      5 S          -1.0751    0.2828   -2.7193 S.2     1  LIG1       -0.0947
      6 H          -1.2995   -2.1134   -3.1954 H       1  LIG1        0.0704
      7 S          -0.8878   -3.3402   -0.4597 S.3     1  LIG1       -0.1418
      8 H           0.4132   -3.4172   -0.1484 H       1  LIG1        0.1071
      9 C          -0.3772   -0.5424    1.1884 C.3     1  LIG1       -0.0376
     10 H          -0.4616    0.4586    1.6114 H       1  LIG1        0.0278
     11 H           0.6233   -0.9291    1.3947 H       1  LIG1        0.0278
     12 H          -1.1055   -1.2011    1.6627 H       1  LIG1        0.0278
     13 C          -0.5236    2.0187   -0.6150 C.ar    1  LIG1        0.0402
     14 C           0.5751    2.5703   -0.0152 C.ar    1  LIG1        0.0236
     15 C           0.4135    3.9662    0.3075 C.ar    1  LIG1       -0.0214
     16 C          -0.8054    4.4301   -0.1010 C.ar    1  LIG1        0.0315
     17 S          -1.7747    3.1908   -0.8210 S.2     1  LIG1       -0.0858
     18 S           2.0359    1.6325    0.3584 S.3     1  LIG1       -0.1412
     19 H           2.8892    2.4975   -0.2016 H       1  LIG1        0.1071
     20 C           1.4560    4.7825    1.0308 C.3     1  LIG1       -0.0375
     21 H           1.0211    5.7210    1.3750 H       1  LIG1        0.0278
     22 H           2.2981    5.0095    0.3723 H       1  LIG1        0.0278
     23 H           1.8282    4.2197    1.8880 H       1  LIG1        0.0278
     24 C          -1.3203    5.8011    0.0157 C.ar    1  LIG1        0.0402
     25 C          -0.7672    6.9491   -0.4805 C.ar    1  LIG1        0.0236
     26 C          -1.5301    8.1333   -0.1726 C.ar    1  LIG1       -0.0214
     27 C          -2.6644    7.8237    0.5226 C.ar    1  LIG1        0.0315
     28 S          -2.7980    6.1309    0.8488 S.2     1  LIG1       -0.0858
     29 S           0.7572    6.9630   -1.3891 S.3     1  LIG1       -0.1412
     30 H           0.3393    7.8240   -2.3254 H       1  LIG1        0.1071
     31 C          -1.1078    9.5285   -0.5610 C.3     1  LIG1       -0.0375
     32 H          -1.7003   10.2609   -0.0123 H       1  LIG1        0.0278
     33 H          -1.2579    9.6937   -1.6312 H       1  LIG1        0.0278
     34 H          -0.0515    9.6709   -0.3281 H       1  LIG1        0.0278
     35 C          -3.7126    8.7513    0.9708 C.ar    1  LIG1        0.0396
     36 C          -4.4849    9.5796    0.2038 C.ar    1  LIG1        0.0230
     37 C          -5.4241   10.3603    0.9735 C.ar    1  LIG1       -0.0297
     38 C          -5.3323   10.0700    2.2982 C.ar    1  LIG1       -0.0197
     39 S          -4.1165    8.9038    2.6460 S.2     1  LIG1       -0.0947
     40 H          -5.9152   10.4979    3.0990 H       1  LIG1        0.0696
     41 S          -4.3096    9.6963   -1.5605 S.3     1  LIG1       -0.1412
     42 H          -5.5883    9.4180   -1.8465 H       1  LIG1        0.1071
     43 C          -6.3843   11.3552    0.3666 C.3     1  LIG1       -0.0382
     44 H          -6.9094   11.8956    1.1527 H       1  LIG1        0.0278
     45 H          -7.1220   10.8467   -0.2574 H       1  LIG1        0.0278
     46 H          -5.8400   12.0659   -0.2566 H       1  LIG1        0.0278
@<TRIPOS>BOND
     1     6     1    1
     2     5     1   ar
     3     5     4   ar
     4     1     2   ar
     5    30    29    1
     6    42    41    1
     7    33    31    1
     8    41    36    1
     9    29    25    1
    10     2     7    1
    11     2     3   ar
    12     4    13    1
    13     4     3   ar
    14    17    13   ar
    15    17    16   ar
    16    13    14   ar
    17    31    34    1
    18    31    26    1
    19    31    32    1
    20    25    26   ar
    21    25    24   ar
    22     7     8    1
    23     3     9    1
    24    45    43    1
    25    46    43    1
    26    19    18    1
    27    26    27   ar
    28    16    24    1
    29    16    15   ar
    30    14    15   ar
    31    14    18    1
    32    24    28   ar
    33    36    35   ar
    34    36    37   ar
    35    15    20    1
    36    43    37    1
    37    43    44    1
    38    22    20    1
    39    27    28   ar
    40    27    35    1
    41    35    39   ar
    42    37    38   ar
    43    20    21    1
    44    20    23    1
    45     9    11    1
    46     9    10    1
    47     9    12    1
    48    38    39   ar
    49    38    40    1
