@<TRIPOS>MOLECULE
mol_data/opt/m06hf/geoms/mol2/5gi5gi5gi-5gi-.out
 46 49 0 0 0
SMALL
GASTEIGER

@<TRIPOS>ATOM
      1 C          -1.0609   -1.4128   -2.4011 C.ar    1  LIG1       -0.0103
      2 C          -0.8287   -1.6853   -1.0891 C.ar    1  LIG1        0.0153
      3 C          -0.6231   -0.5031   -0.2874 C.ar    1  LIG1       -0.0220
      4 C          -0.6908    0.6262   -1.0529 C.ar    1  LIG1        0.0309
      5 S          -1.0264    0.2721   -2.7191 S.2     1  LIG1       -0.0947
      6 H          -1.2434   -2.1260   -3.1889 H       1  LIG1        0.0704
      7 S          -0.8788   -3.3416   -0.4416 S.3     1  LIG1       -0.1418
      8 H           0.4169   -3.4178   -0.1085 H       1  LIG1        0.1071
      9 C          -0.3963   -0.5369    1.2035 C.3     1  LIG1       -0.0376
     10 H          -0.4883    0.4658    1.6209 H       1  LIG1        0.0278
     11 H           0.6007   -0.9224    1.4286 H       1  LIG1        0.0278
     12 H          -1.1324   -1.1940    1.6679 H       1  LIG1        0.0278
     13 C          -0.5118    2.0168   -0.6125 C.ar    1  LIG1        0.0402
     14 C           0.5764    2.5711    0.0038 C.ar    1  LIG1        0.0236
     15 C           0.4090    3.9682    0.3179 C.ar    1  LIG1       -0.0214
     16 C          -0.8029    4.4301   -0.1132 C.ar    1  LIG1        0.0315
     17 S          -1.7594    3.1876   -0.8448 S.2     1  LIG1       -0.0858
     18 S           2.0305    1.6350    0.4065 S.3     1  LIG1       -0.1412
     19 H           2.8934    2.4978   -0.1421 H       1  LIG1        0.1071
     20 C           1.4387    4.7877    1.0557 C.3     1  LIG1       -0.0375
     21 H           0.9978    5.7275    1.3884 H       1  LIG1        0.0278
     22 H           2.2920    5.0122    0.4107 H       1  LIG1        0.0278
     23 H           1.7963    4.2286    1.9214 H       1  LIG1        0.0278
     24 C          -1.3201    5.8013   -0.0108 C.ar    1  LIG1        0.0402
     25 C          -0.7589    6.9475   -0.5021 C.ar    1  LIG1        0.0236
     26 C          -1.5272    8.1328   -0.2119 C.ar    1  LIG1       -0.0214
     27 C          -2.6732    7.8255    0.4651 C.ar    1  LIG1        0.0315
     28 S          -2.8117    6.1340    0.7958 S.2     1  LIG1       -0.0858
     29 S           0.7807    6.9584   -1.3847 S.3     1  LIG1       -0.1412
     30 H           0.3787    7.8162   -2.3309 H       1  LIG1        0.1071
     31 C          -1.0987    9.5266   -0.5985 C.3     1  LIG1       -0.0375
     32 H          -1.7007   10.2609   -0.0629 H       1  LIG1        0.0278
     33 H          -1.2304    9.6874   -1.6717 H       1  LIG1        0.0278
     34 H          -0.0466    9.6702   -0.3480 H       1  LIG1        0.0278
     35 C          -3.7292    8.7544    0.8915 C.ar    1  LIG1        0.0396
     36 C          -4.4888    9.5791    0.1080 C.ar    1  LIG1        0.0230
     37 C          -5.4412   10.3626    0.8584 C.ar    1  LIG1       -0.0297
     38 C          -5.3719   10.0779    2.1856 C.ar    1  LIG1       -0.0197
     39 S          -4.1617    8.9137    2.5589 S.2     1  LIG1       -0.0947
     40 H          -5.9684   10.5089    2.9746 H       1  LIG1        0.0696
     41 S          -4.2836    9.6884   -1.6536 S.3     1  LIG1       -0.1412
     42 H          -5.5571    9.4084   -1.9602 H       1  LIG1        0.1071
     43 C          -6.3914   11.3544    0.2310 C.3     1  LIG1       -0.0382
     44 H          -6.9298   11.8981    1.0057 H       1  LIG1        0.0278
     45 H          -7.1184   10.8429   -0.4031 H       1  LIG1        0.0278
     46 H          -5.8370   12.0626   -0.3862 H       1  LIG1        0.0278
@<TRIPOS>BOND
     1     6     1    1
     2     5     1   ar
     3     5     4   ar
     4     1     2   ar
     5    30    29    1
     6    42    41    1
     7    33    31    1
     8    41    36    1
     9    29    25    1
    10     2     7    1
    11     2     3   ar
    12     4    13    1
    13     4     3   ar
    14    17    13   ar
    15    17    16   ar
    16    13    14   ar
    17    31    34    1
    18    31    26    1
    19    31    32    1
    20    25    26   ar
    21    25    24   ar
    22     7     8    1
    23    45    43    1
    24    46    43    1
    25     3     9    1
    26    26    27   ar
    27    19    18    1
    28    16    24    1
    29    16    15   ar
    30    24    28   ar
    31    14    15   ar
    32    14    18    1
    33    36    37   ar
    34    36    35   ar
    35    43    37    1
    36    43    44    1
    37    15    20    1
    38    22    20    1
    39    27    28   ar
    40    27    35    1
    41    37    38   ar
    42    35    39   ar
    43    20    21    1
    44    20    23    1
    45     9    11    1
    46     9    10    1
    47     9    12    1
    48    38    39   ar
    49    38    40    1
