@<TRIPOS>MOLECULE
mol_data/opt/m06hf/geoms/mol2/5gi5gi5gi5gi.out
 46 49 0 0 0
SMALL
GASTEIGER

@<TRIPOS>ATOM
      1 C          -1.0782   -1.4099   -2.4052 C.ar    1  LIG1       -0.0103
      2 C          -0.8357   -1.6840   -1.0955 C.ar    1  LIG1        0.0153
      3 C          -0.6243   -0.5028   -0.2938 C.ar    1  LIG1       -0.0220
      4 C          -0.6985    0.6275   -1.0572 C.ar    1  LIG1        0.0309
      5 S          -1.0471    0.2754   -2.7212 S.2     1  LIG1       -0.0947
      6 H          -1.2664   -2.1221   -3.1926 H       1  LIG1        0.0704
      7 S          -0.8800   -3.3411   -0.4497 S.3     1  LIG1       -0.1418
      8 H           0.4182   -3.4168   -0.1263 H       1  LIG1        0.1071
      9 C          -0.3859   -0.5385    1.1952 C.3     1  LIG1       -0.0376
     10 H          -0.4748    0.4637    1.6146 H       1  LIG1        0.0278
     11 H           0.6128   -0.9241    1.4121 H       1  LIG1        0.0278
     12 H          -1.1184   -1.1962    1.6645 H       1  LIG1        0.0278
     13 C          -0.5164    2.0175   -0.6165 C.ar    1  LIG1        0.0402
     14 C           0.5763    2.5711   -0.0077 C.ar    1  LIG1        0.0236
     15 C           0.4111    3.9678    0.3096 C.ar    1  LIG1       -0.0214
     16 C          -0.8040    4.4302   -0.1117 C.ar    1  LIG1        0.0315
     17 S          -1.7658    3.1885   -0.8378 S.2     1  LIG1       -0.0858
     18 S           2.0337    1.6349    0.3827 S.3     1  LIG1       -0.1412
     19 H           2.8921    2.4987   -0.1713 H       1  LIG1        0.1071
     20 C           1.4462    4.7864    1.0409 C.3     1  LIG1       -0.0375
     21 H           1.0077    5.7256    1.3784 H       1  LIG1        0.0278
     22 H           2.2946    5.0120    0.3899 H       1  LIG1        0.0278
     23 H           1.8104    4.2260    1.9031 H       1  LIG1        0.0278
     24 C          -1.3206    5.8012   -0.0036 C.ar    1  LIG1        0.0402
     25 C          -0.7631    6.9481   -0.4973 C.ar    1  LIG1        0.0236
     26 C          -1.5293    8.1329   -0.1996 C.ar    1  LIG1       -0.0214
     27 C          -2.6702    7.8245    0.4854 C.ar    1  LIG1        0.0315
     28 S          -2.8063    6.1325    0.8145 S.2     1  LIG1       -0.0858
     29 S           0.7699    6.9605   -1.3913 S.3     1  LIG1       -0.1412
     30 H           0.3609    7.8194   -2.3333 H       1  LIG1        0.1071
     31 C          -1.1038    9.5273   -0.5873 C.3     1  LIG1       -0.0375
     32 H          -1.7017   10.2608   -0.0460 H       1  LIG1        0.0278
     33 H          -1.2436    9.6898   -1.6592 H       1  LIG1        0.0278
     34 H          -0.0498    9.6706   -0.3446 H       1  LIG1        0.0278
     35 C          -3.7230    8.7528    0.9211 C.ar    1  LIG1        0.0396
     36 C          -4.4882    9.5789    0.1447 C.ar    1  LIG1        0.0230
     37 C          -5.4349   10.3613    0.9033 C.ar    1  LIG1       -0.0297
     38 C          -5.3558   10.0744    2.2296 C.ar    1  LIG1       -0.0197
     39 S          -4.1431    8.9094    2.5919 S.2     1  LIG1       -0.0947
     40 H          -5.9465   10.5041    3.0237 H       1  LIG1        0.0696
     41 S          -4.2961    9.6912   -1.6182 S.3     1  LIG1       -0.1412
     42 H          -5.5718    9.4117   -1.9159 H       1  LIG1        0.1071
     43 C          -6.3896   11.3544    0.2847 C.3     1  LIG1       -0.0382
     44 H          -6.9223   11.8966    1.0644 H       1  LIG1        0.0278
     45 H          -7.1212   10.8441   -0.3450 H       1  LIG1        0.0278
     46 H          -5.8396   12.0636   -0.3351 H       1  LIG1        0.0278
@<TRIPOS>BOND
     1     6     1    1
     2     5     1   ar
     3     5     4   ar
     4     1     2   ar
     5    30    29    1
     6    42    41    1
     7    33    31    1
     8    41    36    1
     9    29    25    1
    10     2     7    1
    11     2     3   ar
    12     4    13    1
    13     4     3   ar
    14    17    13   ar
    15    17    16   ar
    16    13    14   ar
    17    31    34    1
    18    31    26    1
    19    31    32    1
    20    25    26   ar
    21    25    24   ar
    22     7     8    1
    23    45    43    1
    24    46    43    1
    25     3     9    1
    26    26    27   ar
    27    19    18    1
    28    16    24    1
    29    16    15   ar
    30    14    15   ar
    31    14    18    1
    32    24    28   ar
    33    36    37   ar
    34    36    35   ar
    35    43    37    1
    36    43    44    1
    37    15    20    1
    38    22    20    1
    39    27    28   ar
    40    27    35    1
    41    37    38   ar
    42    35    39   ar
    43    20    21    1
    44    20    23    1
    45     9    11    1
    46     9    10    1
    47     9    12    1
    48    38    39   ar
    49    38    40    1
