@<TRIPOS>MOLECULE
mol_data/opt/m06hf/geoms/mol2/5gi5gi-5gi-.out
 35 37 0 0 0
SMALL
GASTEIGER

@<TRIPOS>ATOM
      1 C          -1.6548   -1.5637   -1.6666 C.ar    1  LIG1       -0.0103
      2 C          -0.8407   -1.7797   -0.5995 C.ar    1  LIG1        0.0153
      3 C          -0.4044   -0.5631    0.0427 C.ar    1  LIG1       -0.0220
      4 C          -0.9028    0.5353   -0.5987 C.ar    1  LIG1        0.0309
      5 S          -1.9108    0.1109   -1.9431 S.2     1  LIG1       -0.0947
      6 H          -2.1048   -2.3101   -2.3014 H       1  LIG1        0.0704
      7 S          -0.4514   -3.4164   -0.0187 S.3     1  LIG1       -0.1418
      8 H           0.8649   -3.3599   -0.2649 H       1  LIG1        0.1071
      9 C           0.4630   -0.5359    1.2766 C.3     1  LIG1       -0.0376
     10 H           0.4535    0.4592    1.7213 H       1  LIG1        0.0278
     11 H           1.4931   -0.7998    1.0262 H       1  LIG1        0.0278
     12 H           0.0880   -1.2610    1.9997 H       1  LIG1        0.0278
     13 C          -0.6684    1.9485   -0.2726 C.ar    1  LIG1        0.0402
     14 C           0.5268    2.6102   -0.2179 C.ar    1  LIG1        0.0236
     15 C           0.3966    4.0025    0.1336 C.ar    1  LIG1       -0.0214
     16 C          -0.9141    4.3498    0.3003 C.ar    1  LIG1        0.0315
     17 S          -1.9844    3.0078    0.0876 S.2     1  LIG1       -0.0858
     18 S           2.0768    1.8015   -0.5218 S.3     1  LIG1       -0.1412
     19 H           2.6024    2.7956   -1.2458 H       1  LIG1        0.1071
     20 C           1.5669    4.9392    0.3075 C.3     1  LIG1       -0.0375
     21 H           1.2380    5.8551    0.7984 H       1  LIG1        0.0278
     22 H           2.0008    5.2017   -0.6609 H       1  LIG1        0.0278
     23 H           2.3343    4.4587    0.9164 H       1  LIG1        0.0278
     24 C          -1.4468    5.6842    0.6103 C.ar    1  LIG1        0.0396
     25 C          -1.3182    6.8272   -0.1280 C.ar    1  LIG1        0.0230
     26 C          -1.9650    7.9707    0.4721 C.ar    1  LIG1       -0.0297
     27 C          -2.5733    7.6314    1.6396 C.ar    1  LIG1       -0.0197
     28 S          -2.3582    5.9754    2.0521 S.2     1  LIG1       -0.0947
     29 H          -3.1339    8.2829    2.2916 H       1  LIG1        0.0696
     30 S          -0.3992    6.8842   -1.6453 S.3     1  LIG1       -0.1412
     31 H          -1.3106    7.5874   -2.3287 H       1  LIG1        0.1071
     32 C          -1.9696    9.3521   -0.1384 C.3     1  LIG1       -0.0382
     33 H          -2.3998   10.0677    0.5607 H       1  LIG1        0.0278
     34 H          -2.5629    9.3671   -1.0554 H       1  LIG1        0.0278
     35 H          -0.9511    9.6584   -0.3817 H       1  LIG1        0.0278
@<TRIPOS>BOND
     1    31    30    1
     2     6     1    1
     3     5     1   ar
     4     5     4   ar
     5     1     2   ar
     6    30    25    1
     7    19    18    1
     8    34    32    1
     9    22    20    1
    10     2     7    1
    11     2     3   ar
    12     4    13    1
    13     4     3   ar
    14    18    14    1
    15    35    32    1
    16    13    14   ar
    17    13    17   ar
    18     8     7    1
    19    14    15   ar
    20    32    26    1
    21    32    33    1
    22    25    26   ar
    23    25    24   ar
    24     3     9    1
    25    17    16   ar
    26    15    16   ar
    27    15    20    1
    28    16    24    1
    29    20    21    1
    30    20    23    1
    31    26    27   ar
    32    24    28   ar
    33    11     9    1
    34     9    10    1
    35     9    12    1
    36    27    28   ar
    37    27    29    1
