@<TRIPOS>MOLECULE
mol_data/opt/m06hf/geoms/mol2/5gi5gi.out
 24 25 0 0 0
SMALL
GASTEIGER

@<TRIPOS>ATOM
      1 C          -1.9378   -1.6861   -0.8735 C.ar    1  LIG1       -0.0103
      2 C          -0.7518   -1.7887   -0.2163 C.ar    1  LIG1        0.0153
      3 C          -0.2389   -0.5191    0.2386 C.ar    1  LIG1       -0.0220
      4 C          -1.0697    0.5026   -0.1212 C.ar    1  LIG1        0.0309
      5 S          -2.4677   -0.0573   -0.9783 S.2     1  LIG1       -0.0947
      6 H          -2.5150   -2.4905   -1.2999 H       1  LIG1        0.0704
      7 S           0.0156   -3.3588    0.1215 S.3     1  LIG1       -0.1418
      8 H           1.0746   -3.1904   -0.6828 H       1  LIG1        0.1071
      9 C           1.0368   -0.3658    1.0289 C.3     1  LIG1       -0.0376
     10 H           1.0981    0.6389    1.4473 H       1  LIG1        0.0278
     11 H           1.9045   -0.5344    0.3875 H       1  LIG1        0.0278
     12 H           1.0567   -1.0995    1.8353 H       1  LIG1        0.0278
     13 C          -0.8859    1.9373    0.1410 C.ar    1  LIG1        0.0396
     14 C           0.1384    2.7458   -0.2672 C.ar    1  LIG1        0.0230
     15 C           0.0059    4.1103    0.1867 C.ar    1  LIG1       -0.0297
     16 C          -1.1335    4.2773    0.9084 C.ar    1  LIG1       -0.0197
     17 S          -2.0336    2.8220    1.0845 S.2     1  LIG1       -0.0947
     18 H          -1.4865    5.1903    1.3615 H       1  LIG1        0.0696
     19 S           1.5130    2.1443   -1.2186 S.3     1  LIG1       -0.1412
     20 H           1.4179    3.0612   -2.1905 H       1  LIG1        0.1071
     21 C           1.0093    5.1978   -0.1152 C.3     1  LIG1       -0.0382
     22 H           0.7516    6.1050    0.4291 H       1  LIG1        0.0278
     23 H           1.0231    5.4265   -1.1828 H       1  LIG1        0.0278
     24 H           2.0088    4.8743    0.1784 H       1  LIG1        0.0278
@<TRIPOS>BOND
     1    20    19    1
     2     6     1    1
     3    19    14    1
     4    23    21    1
     5     5     1   ar
     6     5     4   ar
     7     1     2   ar
     8     8     7    1
     9    14    13   ar
    10    14    15   ar
    11     2     7    1
    12     2     3   ar
    13     4    13    1
    14     4     3   ar
    15    21    24    1
    16    21    15    1
    17    21    22    1
    18    13    17   ar
    19    15    16   ar
    20     3     9    1
    21    11     9    1
    22    16    17   ar
    23    16    18    1
    24     9    10    1
    25     9    12    1
