@<TRIPOS>MOLECULE
mol_data/opt/m06hf/geoms/mol2/5gi5gi-5gi-5gi-.out
 46 49 0 0 0
SMALL
GASTEIGER

@<TRIPOS>ATOM
      1 C          -1.0793   -1.4065   -2.4031 C.ar    1  LIG1       -0.0103
      2 C          -0.8374   -1.6826   -1.0937 C.ar    1  LIG1        0.0153
      3 C          -0.6260   -0.5027   -0.2903 C.ar    1  LIG1       -0.0220
      4 C          -0.6994    0.6288   -1.0520 C.ar    1  LIG1        0.0309
      5 S          -1.0475    0.2793   -2.7167 S.2     1  LIG1       -0.0947
      6 H          -1.2676   -2.1175   -3.1916 H       1  LIG1        0.0704
      7 S          -0.8826   -3.3407   -0.4504 S.3     1  LIG1       -0.1418
      8 H           0.4155   -3.4174   -0.1267 H       1  LIG1        0.1071
      9 C          -0.3882   -0.5405    1.1988 C.3     1  LIG1       -0.0376
     10 H          -0.4772    0.4610    1.6196 H       1  LIG1        0.0278
     11 H           0.6105   -0.9265    1.4155 H       1  LIG1        0.0278
     12 H          -1.1207   -1.1991    1.6668 H       1  LIG1        0.0278
     13 C          -0.5170    2.0181   -0.6093 C.ar    1  LIG1        0.0402
     14 C           0.5757    2.5707    0.0004 C.ar    1  LIG1        0.0236
     15 C           0.4108    3.9669    0.3196 C.ar    1  LIG1       -0.0214
     16 C          -0.8042    4.4301   -0.1012 C.ar    1  LIG1        0.0315
     17 S          -1.7662    3.1897   -0.8290 S.2     1  LIG1       -0.0858
     18 S           2.0328    1.6335    0.3897 S.3     1  LIG1       -0.1412
     19 H           2.8916    2.4978   -0.1629 H       1  LIG1        0.1071
     20 C           1.4460    4.7843    1.0520 C.3     1  LIG1       -0.0375
     21 H           1.0077    5.7232    1.3906 H       1  LIG1        0.0278
     22 H           2.2945    5.0106    0.4014 H       1  LIG1        0.0278
     23 H           1.8100    4.2228    1.9135 H       1  LIG1        0.0278
     24 C          -1.3205    5.8011    0.0087 C.ar    1  LIG1        0.0402
     25 C          -0.7628    6.9485   -0.4836 C.ar    1  LIG1        0.0236
     26 C          -1.5286    8.1331   -0.1845 C.ar    1  LIG1       -0.0214
     27 C          -2.6695    7.8242    0.5003 C.ar    1  LIG1        0.0315
     28 S          -2.8060    6.1318    0.8273 S.2     1  LIG1       -0.0858
     29 S           0.7703    6.9616   -1.3777 S.3     1  LIG1       -0.1412
     30 H           0.3614    7.8218   -2.3186 H       1  LIG1        0.1071
     31 C          -1.1028    9.5279   -0.5706 C.3     1  LIG1       -0.0375
     32 H          -1.7006   10.2608   -0.0285 H       1  LIG1        0.0278
     33 H          -1.2426    9.6917   -1.6423 H       1  LIG1        0.0278
     34 H          -0.0488    9.6707   -0.3276 H       1  LIG1        0.0278
     35 C          -3.7221    8.7522    0.9371 C.ar    1  LIG1        0.0396
     36 C          -4.4871    9.5794    0.1617 C.ar    1  LIG1        0.0230
     37 C          -5.4337   10.3611    0.9213 C.ar    1  LIG1       -0.0297
     38 C          -5.3546   10.0726    2.2472 C.ar    1  LIG1       -0.0197
     39 S          -4.1421    8.9069    2.6081 S.2     1  LIG1       -0.0947
     40 H          -5.9450   10.5015    3.0419 H       1  LIG1        0.0696
     41 S          -4.2951    9.6937   -1.6011 S.3     1  LIG1       -0.1412
     42 H          -5.5709    9.4149   -1.8989 H       1  LIG1        0.1071
     43 C          -6.3881   11.3550    0.3038 C.3     1  LIG1       -0.0382
     44 H          -6.9207   11.8966    1.0841 H       1  LIG1        0.0278
     45 H          -7.1200   10.8455   -0.3263 H       1  LIG1        0.0278
     46 H          -5.8381   12.0648   -0.3153 H       1  LIG1        0.0278
@<TRIPOS>BOND
     1     6     1    1
     2     5     1   ar
     3     5     4   ar
     4     1     2   ar
     5    30    29    1
     6    42    41    1
     7    33    31    1
     8    41    36    1
     9    29    25    1
    10     2     7    1
    11     2     3   ar
    12     4    13    1
    13     4     3   ar
    14    17    13   ar
    15    17    16   ar
    16    13    14   ar
    17    31    34    1
    18    31    26    1
    19    31    32    1
    20    25    26   ar
    21    25    24   ar
    22     7     8    1
    23    45    43    1
    24    46    43    1
    25     3     9    1
    26    26    27   ar
    27    19    18    1
    28    16    24    1
    29    16    15   ar
    30    14    15   ar
    31    14    18    1
    32    24    28   ar
    33    36    37   ar
    34    36    35   ar
    35    43    37    1
    36    43    44    1
    37    15    20    1
    38    22    20    1
    39    27    28   ar
    40    27    35    1
    41    37    38   ar
    42    35    39   ar
    43    20    21    1
    44    20    23    1
    45     9    11    1
    46     9    10    1
    47     9    12    1
    48    38    39   ar
    49    38    40    1
