@<TRIPOS>MOLECULE
mol_data/opt/m06hf/geoms/mol2/5gi5gi5gi5gi-.out
 46 49 0 0 0
SMALL
GASTEIGER

@<TRIPOS>ATOM
      1 C          -1.0839   -1.4182   -2.3868 C.ar    1  LIG1       -0.0103
      2 C          -0.8394   -1.6878   -1.0765 C.ar    1  LIG1        0.0153
      3 C          -0.6262   -0.5038   -0.2794 C.ar    1  LIG1       -0.0220
      4 C          -0.7011    0.6238   -1.0467 C.ar    1  LIG1        0.0309
      5 S          -1.0526    0.2660   -2.7089 S.2     1  LIG1       -0.0947
      6 H          -1.2739   -2.1331   -3.1713 H       1  LIG1        0.0704
      7 S          -0.8835   -3.3426   -0.4249 S.3     1  LIG1       -0.1418
      8 H           0.4152   -3.4179   -0.1033 H       1  LIG1        0.1071
      9 C          -0.3854   -0.5343    1.2094 C.3     1  LIG1       -0.0376
     10 H          -0.4732    0.4694    1.6253 H       1  LIG1        0.0278
     11 H           0.6135   -0.9196    1.4259 H       1  LIG1        0.0278
     12 H          -1.1173   -1.1901    1.6822 H       1  LIG1        0.0278
     13 C          -0.5178    2.0153   -0.6112 C.ar    1  LIG1        0.0402
     14 C           0.5761    2.5709   -0.0065 C.ar    1  LIG1        0.0236
     15 C           0.4119    3.9687    0.3061 C.ar    1  LIG1       -0.0214
     16 C          -0.8040    4.4298   -0.1145 C.ar    1  LIG1        0.0315
     17 S          -1.7675    3.1858   -0.8343 S.2     1  LIG1       -0.0858
     18 S           2.0339    1.6355    0.3846 S.3     1  LIG1       -0.1412
     19 H           2.8917    2.4970   -0.1742 H       1  LIG1        0.1071
     20 C           1.4486    4.7897    1.0324 C.3     1  LIG1       -0.0375
     21 H           1.0110    5.7302    1.3673 H       1  LIG1        0.0278
     22 H           2.2957    5.0127    0.3789 H       1  LIG1        0.0278
     23 H           1.8144    4.2324    1.8959 H       1  LIG1        0.0278
     24 C          -1.3201    5.8013   -0.0103 C.ar    1  LIG1        0.0402
     25 C          -0.7634    6.9464   -0.5092 C.ar    1  LIG1        0.0236
     26 C          -1.5288    8.1323   -0.2143 C.ar    1  LIG1       -0.0214
     27 C          -2.6684    7.8267    0.4740 C.ar    1  LIG1        0.0315
     28 S          -2.8041    6.1358    0.8095 S.2     1  LIG1       -0.0858
     29 S           0.7680    6.9553   -1.4062 S.3     1  LIG1       -0.1412
     30 H           0.3572    7.8108   -2.3506 H       1  LIG1        0.1071
     31 C          -1.1038    9.5253   -0.6079 C.3     1  LIG1       -0.0375
     32 H          -1.7007   10.2608   -0.0683 H       1  LIG1        0.0278
     33 H          -1.2456    9.6839   -1.6802 H       1  LIG1        0.0278
     34 H          -0.0494    9.6694   -0.3677 H       1  LIG1        0.0278
     35 C          -3.7203    8.7567    0.9082 C.ar    1  LIG1        0.0396
     36 C          -4.4870    9.5798    0.1302 C.ar    1  LIG1        0.0230
     37 C          -5.4323   10.3650    0.8877 C.ar    1  LIG1       -0.0297
     38 C          -5.3506   10.0831    2.2149 C.ar    1  LIG1       -0.0197
     39 S          -4.1370    8.9196    2.5792 S.2     1  LIG1       -0.0947
     40 H          -5.9397   10.5159    3.0085 H       1  LIG1        0.0696
     41 S          -4.2983    9.6854   -1.6335 S.3     1  LIG1       -0.1412
     42 H          -5.5746    9.4049   -1.9276 H       1  LIG1        0.1071
     43 C          -6.3882   11.3557    0.2671 C.3     1  LIG1       -0.0382
     44 H          -6.9195   11.9008    1.0457 H       1  LIG1        0.0278
     45 H          -7.1209   10.8429   -0.3593 H       1  LIG1        0.0278
     46 H          -5.8394   12.0626   -0.3564 H       1  LIG1        0.0278
@<TRIPOS>BOND
     1     6     1    1
     2     5     1   ar
     3     5     4   ar
     4     1     2   ar
     5    30    29    1
     6    42    41    1
     7    33    31    1
     8    41    36    1
     9    29    25    1
    10     2     7    1
    11     2     3   ar
    12     4    13    1
    13     4     3   ar
    14    17    13   ar
    15    17    16   ar
    16    13    14   ar
    17    31    34    1
    18    31    26    1
    19    31    32    1
    20    25    26   ar
    21    25    24   ar
    22     7     8    1
    23    45    43    1
    24    46    43    1
    25     3     9    1
    26    26    27   ar
    27    19    18    1
    28    16    24    1
    29    16    15   ar
    30    24    28   ar
    31    14    15   ar
    32    14    18    1
    33    36    37   ar
    34    36    35   ar
    35    43    37    1
    36    43    44    1
    37    15    20    1
    38    22    20    1
    39    27    28   ar
    40    27    35    1
    41    37    38   ar
    42    35    39   ar
    43    20    21    1
    44    20    23    1
    45     9    11    1
    46     9    10    1
    47     9    12    1
    48    38    39   ar
    49    38    40    1
