@<TRIPOS>MOLECULE
mol_data/opt/m06hf/geoms/mol2/5gi5gi5gi-5gi.out
 46 49 0 0 0
SMALL
GASTEIGER

@<TRIPOS>ATOM
      1 C          -1.0570   -1.4054   -2.4168 C.ar    1  LIG1       -0.0103
      2 C          -0.8253   -1.6818   -1.1056 C.ar    1  LIG1        0.0153
      3 C          -0.6207   -0.5021   -0.3001 C.ar    1  LIG1       -0.0220
      4 C          -0.6887    0.6296   -1.0621 C.ar    1  LIG1        0.0309
      5 S          -1.0234    0.2805   -2.7295 S.2     1  LIG1       -0.0947
      6 H          -1.2388   -2.1162   -3.2069 H       1  LIG1        0.0704
      7 S          -0.8748   -3.3401   -0.4632 S.3     1  LIG1       -0.1418
      8 H           0.4208   -3.4165   -0.1295 H       1  LIG1        0.1071
      9 C          -0.3946   -0.5404    1.1908 C.3     1  LIG1       -0.0376
     10 H          -0.4876    0.4609    1.6113 H       1  LIG1        0.0278
     11 H           0.6025   -0.9257    1.4152 H       1  LIG1        0.0278
     12 H          -1.1304   -1.1995    1.6528 H       1  LIG1        0.0278
     13 C          -0.5105    2.0189   -0.6174 C.ar    1  LIG1        0.0402
     14 C           0.5771    2.5718    0.0012 C.ar    1  LIG1        0.0236
     15 C           0.4089    3.9678    0.3196 C.ar    1  LIG1       -0.0214
     16 C          -0.8029    4.4306   -0.1108 C.ar    1  LIG1        0.0315
     17 S          -1.7584    3.1899   -0.8467 S.2     1  LIG1       -0.0858
     18 S           2.0314    1.6352    0.4019 S.3     1  LIG1       -0.1412
     19 H           2.8943    2.5001   -0.1436 H       1  LIG1        0.1071
     20 C           1.4379    4.7854    1.0605 C.3     1  LIG1       -0.0375
     21 H           0.9964    5.7240    1.3960 H       1  LIG1        0.0278
     22 H           2.2914    5.0123    0.4168 H       1  LIG1        0.0278
     23 H           1.7952    4.2238    1.9247 H       1  LIG1        0.0278
     24 C          -1.3207    5.8013   -0.0046 C.ar    1  LIG1        0.0402
     25 C          -0.7596    6.9492   -0.4921 C.ar    1  LIG1        0.0236
     26 C          -1.5284    8.1333   -0.1988 C.ar    1  LIG1       -0.0214
     27 C          -2.6746    7.8236    0.4767 C.ar    1  LIG1        0.0315
     28 S          -2.8128    6.1310    0.8022 S.2     1  LIG1       -0.0858
     29 S           0.7806    6.9633   -1.3738 S.3     1  LIG1       -0.1412
     30 H           0.3788    7.8237   -2.3177 H       1  LIG1        0.1071
     31 C          -1.1002    9.5284   -0.5810 C.3     1  LIG1       -0.0375
     32 H          -1.7028   10.2609   -0.0436 H       1  LIG1        0.0278
     33 H          -1.2315    9.6924   -1.6538 H       1  LIG1        0.0278
     34 H          -0.0483    9.6716   -0.3296 H       1  LIG1        0.0278
     35 C          -3.7312    8.7509    0.9052 C.ar    1  LIG1        0.0396
     36 C          -4.4905    9.5778    0.1239 C.ar    1  LIG1        0.0230
     37 C          -5.4435   10.3588    0.8760 C.ar    1  LIG1       -0.0297
     38 C          -5.3749   10.0701    2.2025 C.ar    1  LIG1       -0.0197
     39 S          -4.1647    8.9051    2.5729 S.2     1  LIG1       -0.0947
     40 H          -5.9721   10.4985    2.9924 H       1  LIG1        0.0696
     41 S          -4.2843    9.6926   -1.6373 S.3     1  LIG1       -0.1412
     42 H          -5.5576    9.4132   -1.9454 H       1  LIG1        0.1071
     43 C          -6.3936   11.3523    0.2511 C.3     1  LIG1       -0.0382
     44 H          -6.9327   11.8934    1.0272 H       1  LIG1        0.0278
     45 H          -7.1200   10.8425   -0.3850 H       1  LIG1        0.0278
     46 H          -5.8390   12.0625   -0.3635 H       1  LIG1        0.0278
@<TRIPOS>BOND
     1     6     1    1
     2     5     1   ar
     3     5     4   ar
     4     1     2   ar
     5    30    29    1
     6    42    41    1
     7    33    31    1
     8    41    36    1
     9    29    25    1
    10     2     7    1
    11     2     3   ar
    12     4    13    1
    13     4     3   ar
    14    17    13   ar
    15    17    16   ar
    16    13    14   ar
    17    31    34    1
    18    31    26    1
    19    31    32    1
    20    25    26   ar
    21    25    24   ar
    22     7     8    1
    23    45    43    1
    24    46    43    1
    25     3     9    1
    26    26    27   ar
    27    19    18    1
    28    16    24    1
    29    16    15   ar
    30    24    28   ar
    31    14    15   ar
    32    14    18    1
    33    36    37   ar
    34    36    35   ar
    35    43    37    1
    36    43    44    1
    37    15    20    1
    38    22    20    1
    39    27    28   ar
    40    27    35    1
    41    37    38   ar
    42    35    39   ar
    43    20    21    1
    44    20    23    1
    45     9    11    1
    46     9    10    1
    47     9    12    1
    48    38    39   ar
    49    38    40    1
