@<TRIPOS>MOLECULE
mol_data/opt/m06hf/geoms/mol2/5gi5gi-5gi-5gi.out
 46 49 0 0 0
SMALL
GASTEIGER

@<TRIPOS>ATOM
      1 C          -1.0834   -1.3993   -2.4192 C.ar    1  LIG1       -0.0103
      2 C          -0.8407   -1.6794   -1.1108 C.ar    1  LIG1        0.0153
      3 C          -0.6281   -0.5019   -0.3040 C.ar    1  LIG1       -0.0220
      4 C          -0.7015    0.6318   -1.0624 C.ar    1  LIG1        0.0309
      5 S          -1.0509    0.2874   -2.7278 S.2     1  LIG1       -0.0947
      6 H          -1.2726   -2.1078   -3.2097 H       1  LIG1        0.0704
      7 S          -0.8865   -3.3393   -0.4725 S.3     1  LIG1       -0.1418
      8 H           0.4118   -3.4179   -0.1500 H       1  LIG1        0.1071
      9 C          -0.3893   -0.5444    1.1848 C.3     1  LIG1       -0.0376
     10 H          -0.4775    0.4559    1.6087 H       1  LIG1        0.0278
     11 H           0.6092   -0.9316    1.3996 H       1  LIG1        0.0278
     12 H          -1.1220   -1.2038    1.6514 H       1  LIG1        0.0278
     13 C          -0.5183    2.0197   -0.6155 C.ar    1  LIG1        0.0402
     14 C           0.5750    2.5700   -0.0049 C.ar    1  LIG1        0.0236
     15 C           0.4109    3.9654    0.3187 C.ar    1  LIG1       -0.0214
     16 C          -0.8042    4.4303   -0.1000 C.ar    1  LIG1        0.0315
     17 S          -1.7672    3.1925   -0.8310 S.2     1  LIG1       -0.0858
     18 S           2.0320    1.6311    0.3807 S.3     1  LIG1       -0.1412
     19 H           2.8908    2.4968   -0.1699 H       1  LIG1        0.1071
     20 C           1.4469    4.7802    1.0528 C.3     1  LIG1       -0.0375
     21 H           1.0091    5.7182    1.3945 H       1  LIG1        0.0278
     22 H           2.2950    5.0081    0.4023 H       1  LIG1        0.0278
     23 H           1.8112    4.2160    1.9124 H       1  LIG1        0.0278
     24 C          -1.3200    5.8011    0.0144 C.ar    1  LIG1        0.0402
     25 C          -0.7622    6.9499   -0.4746 C.ar    1  LIG1        0.0236
     26 C          -1.5276    8.1338   -0.1714 C.ar    1  LIG1       -0.0214
     27 C          -2.6682    7.8231    0.5130 C.ar    1  LIG1        0.0315
     28 S          -2.8050    6.1297    0.8348 S.2     1  LIG1       -0.0858
     29 S           0.7703    6.9653   -1.3695 S.3     1  LIG1       -0.1412
     30 H           0.3612    7.8288   -2.3074 H       1  LIG1        0.1071
     31 C          -1.1015    9.5297   -0.5533 C.3     1  LIG1       -0.0375
     32 H          -1.6989   10.2611   -0.0087 H       1  LIG1        0.0278
     33 H          -1.2417    9.6968   -1.6245 H       1  LIG1        0.0278
     34 H          -0.0474    9.6714   -0.3104 H       1  LIG1        0.0278
     35 C          -3.7203    8.7500    0.9532 C.ar    1  LIG1        0.0396
     36 C          -4.4858    9.5796    0.1808 C.ar    1  LIG1        0.0230
     37 C          -5.4318   10.3591    0.9433 C.ar    1  LIG1       -0.0297
     38 C          -5.3520   10.0665    2.2683 C.ar    1  LIG1       -0.0197
     39 S          -4.1393    8.8997    2.6249 S.2     1  LIG1       -0.0947
     40 H          -5.9420   10.4931    3.0645 H       1  LIG1        0.0696
     41 S          -4.2946    9.6992   -1.5817 S.3     1  LIG1       -0.1412
     42 H          -5.5706    9.4215   -1.8798 H       1  LIG1        0.1071
     43 C          -6.3865   11.3550    0.3294 C.3     1  LIG1       -0.0382
     44 H          -6.9186   11.8942    1.1116 H       1  LIG1        0.0278
     45 H          -7.1187   10.8475   -0.3020 H       1  LIG1        0.0278
     46 H          -5.8367   12.0666   -0.2878 H       1  LIG1        0.0278
@<TRIPOS>BOND
     1     6     1    1
     2     5     1   ar
     3     5     4   ar
     4     1     2   ar
     5    30    29    1
     6    42    41    1
     7    33    31    1
     8    41    36    1
     9    29    25    1
    10     2     7    1
    11     2     3   ar
    12     4    13    1
    13     4     3   ar
    14    17    13   ar
    15    17    16   ar
    16    13    14   ar
    17    31    34    1
    18    31    26    1
    19    31    32    1
    20    25    26   ar
    21    25    24   ar
    22     7     8    1
    23     3     9    1
    24    45    43    1
    25    46    43    1
    26    26    27   ar
    27    19    18    1
    28    16    24    1
    29    16    15   ar
    30    14    15   ar
    31    14    18    1
    32    24    28   ar
    33    36    37   ar
    34    36    35   ar
    35    15    20    1
    36    43    37    1
    37    43    44    1
    38    22    20    1
    39    27    28   ar
    40    27    35    1
    41    37    38   ar
    42    35    39   ar
    43    20    21    1
    44    20    23    1
    45     9    11    1
    46     9    10    1
    47     9    12    1
    48    38    39   ar
    49    38    40    1
