@<TRIPOS>MOLECULE
mol_data/opt/m06hf/geoms/mol2/5gi5gi5gi.out
 35 37 0 0 0
SMALL
GASTEIGER

@<TRIPOS>ATOM
      1 C          -1.6706   -1.5788   -1.6215 C.ar    1  LIG1       -0.0103
      2 C          -0.8477   -1.7851   -0.5593 C.ar    1  LIG1        0.0153
      3 C          -0.4057   -0.5627    0.0679 C.ar    1  LIG1       -0.0220
      4 C          -0.9093    0.5298   -0.5795 C.ar    1  LIG1        0.0309
      5 S          -1.9286    0.0932   -1.9114 S.2     1  LIG1       -0.0947
      6 H          -2.1262   -2.3310   -2.2454 H       1  LIG1        0.0704
      7 S          -0.4537   -3.4163    0.0336 S.3     1  LIG1       -0.1418
      8 H           0.8604   -3.3627   -0.2248 H       1  LIG1        0.1071
      9 C           0.4719   -0.5242    1.2942 C.3     1  LIG1       -0.0376
     10 H           0.4669    0.4752    1.7293 H       1  LIG1        0.0278
     11 H           1.4996   -0.7914    1.0379 H       1  LIG1        0.0278
     12 H           0.1024   -1.2420    2.0274 H       1  LIG1        0.0278
     13 C          -0.6717    1.9458   -0.2687 C.ar    1  LIG1        0.0402
     14 C           0.5242    2.6075   -0.2305 C.ar    1  LIG1        0.0236
     15 C           0.3976    4.0032    0.1090 C.ar    1  LIG1       -0.0214
     16 C          -0.9115    4.3527    0.2833 C.ar    1  LIG1        0.0315
     17 S          -1.9841    3.0092    0.0926 S.2     1  LIG1       -0.0858
     18 S           2.0712    1.7953   -0.5402 S.3     1  LIG1       -0.1412
     19 H           2.5909    2.7823   -1.2780 H       1  LIG1        0.1071
     20 C           1.5697    4.9408    0.2642 C.3     1  LIG1       -0.0375
     21 H           1.2456    5.8614    0.7495 H       1  LIG1        0.0278
     22 H           1.9954    5.1942   -0.7103 H       1  LIG1        0.0278
     23 H           2.3422    4.4654    0.8708 H       1  LIG1        0.0278
     24 C          -1.4409    5.6902    0.5853 C.ar    1  LIG1        0.0396
     25 C          -1.3177    6.8262   -0.1646 C.ar    1  LIG1        0.0230
     26 C          -1.9588    7.9758    0.4302 C.ar    1  LIG1       -0.0297
     27 C          -2.5577    7.6476    1.6058 C.ar    1  LIG1       -0.0197
     28 S          -2.3403    5.9953    2.0317 S.2     1  LIG1       -0.0947
     29 H          -3.1126    8.3054    2.2563 H       1  LIG1        0.0696
     30 S          -0.4112    6.8687   -1.6898 S.3     1  LIG1       -0.1412
     31 H          -1.3281    7.5656   -2.3724 H       1  LIG1        0.1071
     32 C          -1.9674    9.3514   -0.1928 C.3     1  LIG1       -0.0382
     33 H          -2.3915   10.0738    0.5031 H       1  LIG1        0.0278
     34 H          -2.5682    9.3584   -1.1051 H       1  LIG1        0.0278
     35 H          -0.9508    9.6548   -0.4472 H       1  LIG1        0.0278
@<TRIPOS>BOND
     1    31    30    1
     2     6     1    1
     3     5     1   ar
     4     5     4   ar
     5    30    25    1
     6     1     2   ar
     7    19    18    1
     8    34    32    1
     9    22    20    1
    10     4    13    1
    11     4     3   ar
    12     2     7    1
    13     2     3   ar
    14    18    14    1
    15    35    32    1
    16    13    14   ar
    17    13    17   ar
    18    14    15   ar
    19     8     7    1
    20    32    26    1
    21    32    33    1
    22    25    26   ar
    23    25    24   ar
    24     3     9    1
    25    17    16   ar
    26    15    20    1
    27    15    16   ar
    28    20    21    1
    29    20    23    1
    30    16    24    1
    31    26    27   ar
    32    24    28   ar
    33    11     9    1
    34     9    10    1
    35     9    12    1
    36    27    28   ar
    37    27    29    1
