@<TRIPOS>MOLECULE
mol_data/opt/m06hf/geoms/mol2/5gi5gi-5gi5gi-.out
 46 49 0 0 0
SMALL
GASTEIGER

@<TRIPOS>ATOM
      1 C          -1.1047   -1.4129   -2.3863 C.ar    1  LIG1       -0.0103
      2 C          -0.8495   -1.6855   -1.0787 C.ar    1  LIG1        0.0153
      3 C          -0.6295   -0.5035   -0.2806 C.ar    1  LIG1       -0.0220
      4 C          -0.7106    0.6260   -1.0446 C.ar    1  LIG1        0.0309
      5 S          -1.0758    0.2721   -2.7047 S.2     1  LIG1       -0.0947
      6 H          -1.3013   -2.1259   -3.1708 H       1  LIG1        0.0704
      7 S          -0.8887   -3.3418   -0.4305 S.3     1  LIG1       -0.1418
      8 H           0.4126   -3.4182   -0.1198 H       1  LIG1        0.1071
      9 C          -0.3765   -0.5374    1.2061 C.3     1  LIG1       -0.0376
     10 H          -0.4608    0.4653    1.6251 H       1  LIG1        0.0278
     11 H           0.6242   -0.9232    1.4135 H       1  LIG1        0.0278
     12 H          -1.1045   -1.1944    1.6834 H       1  LIG1        0.0278
     13 C          -0.5235    2.0164   -0.6074 C.ar    1  LIG1        0.0402
     14 C           0.5755    2.5705   -0.0105 C.ar    1  LIG1        0.0236
     15 C           0.4140    3.9676    0.3067 C.ar    1  LIG1       -0.0214
     16 C          -0.8052    4.4298   -0.1028 C.ar    1  LIG1        0.0315
     17 S          -1.7748    3.1876   -0.8175 S.2     1  LIG1       -0.0858
     18 S           2.0364    1.6341    0.3663 S.3     1  LIG1       -0.1412
     19 H           2.8896    2.4968   -0.1976 H       1  LIG1        0.1071
     20 C           1.4568    4.7868    1.0263 C.3     1  LIG1       -0.0375
     21 H           1.0220    5.7266    1.3670 H       1  LIG1        0.0278
     22 H           2.2985    5.0113    0.3663 H       1  LIG1        0.0278
     23 H           1.8296    4.2274    1.8854 H       1  LIG1        0.0278
     24 C          -1.3202    5.8011    0.0087 C.ar    1  LIG1        0.0402
     25 C          -0.7675    6.9473   -0.4922 C.ar    1  LIG1        0.0236
     26 C          -1.5302    8.1326   -0.1883 C.ar    1  LIG1       -0.0214
     27 C          -2.6641    7.8256    0.5088 C.ar    1  LIG1        0.0315
     28 S          -2.7974    6.1341    0.8415 S.2     1  LIG1       -0.0858
     29 S           0.7563    6.9579   -1.4018 S.3     1  LIG1       -0.1412
     30 H           0.3379    7.8157   -2.3408 H       1  LIG1        0.1071
     31 C          -1.1083    9.5264   -0.5823 C.3     1  LIG1       -0.0375
     32 H          -1.7005   10.2608   -0.0360 H       1  LIG1        0.0278
     33 H          -1.2589    9.6874   -1.6530 H       1  LIG1        0.0278
     34 H          -0.0519    9.6698   -0.3504 H       1  LIG1        0.0278
     35 C          -3.7121    8.7548    0.9540 C.ar    1  LIG1        0.0396
     36 C          -4.4850    9.5800    0.1843 C.ar    1  LIG1        0.0230
     37 C          -5.4237   10.3637    0.9514 C.ar    1  LIG1       -0.0297
     38 C          -5.3311   10.0787    2.2772 C.ar    1  LIG1       -0.0197
     39 S          -4.1150    8.9139    2.6288 S.2     1  LIG1       -0.0947
     40 H          -5.9135   10.5097    3.0767 H       1  LIG1        0.0696
     41 S          -4.3109    9.6898   -1.5807 S.3     1  LIG1       -0.1412
     42 H          -5.5896    9.4103   -1.8648 H       1  LIG1        0.1071
     43 C          -6.3844   11.3561    0.3411 C.3     1  LIG1       -0.0382
     44 H          -6.9091   11.8996    1.1254 H       1  LIG1        0.0278
     45 H          -7.1225   10.8450   -0.2804 H       1  LIG1        0.0278
     46 H          -5.8407   12.0644   -0.2853 H       1  LIG1        0.0278
@<TRIPOS>BOND
     1     6     1    1
     2     5     1   ar
     3     5     4   ar
     4     1     2   ar
     5    30    29    1
     6    42    41    1
     7    33    31    1
     8    41    36    1
     9    29    25    1
    10     2     7    1
    11     2     3   ar
    12     4    13    1
    13     4     3   ar
    14    17    13   ar
    15    17    16   ar
    16    13    14   ar
    17    31    34    1
    18    31    26    1
    19    31    32    1
    20    25    26   ar
    21    25    24   ar
    22     7     8    1
    23    46    43    1
    24     3     9    1
    25    45    43    1
    26    19    18    1
    27    26    27   ar
    28    16    24    1
    29    16    15   ar
    30    14    15   ar
    31    14    18    1
    32    24    28   ar
    33    36    37   ar
    34    36    35   ar
    35    15    20    1
    36    43    37    1
    37    43    44    1
    38    22    20    1
    39    27    28   ar
    40    27    35    1
    41    37    38   ar
    42    35    39   ar
    43    20    21    1
    44    20    23    1
    45     9    11    1
    46     9    10    1
    47     9    12    1
    48    38    39   ar
    49    38    40    1
