@<TRIPOS>MOLECULE
mol_data/opt/m06hf/geoms/mol2/5gi5gi-5gi.out
 35 37 0 0 0
SMALL
GASTEIGER

@<TRIPOS>ATOM
      1 C          -1.6972   -1.5820   -1.6073 C.ar    1  LIG1       -0.0103
      2 C          -0.8489   -1.7851   -0.5643 C.ar    1  LIG1        0.0153
      3 C          -0.3987   -0.5612    0.0536 C.ar    1  LIG1       -0.0220
      4 C          -0.9197    0.5297   -0.5828 C.ar    1  LIG1        0.0309
      5 S          -1.9647    0.0890   -1.8937 S.2     1  LIG1       -0.0947
      6 H          -2.1657   -2.3360   -2.2192 H       1  LIG1        0.0704
      7 S          -0.4171   -3.4132    0.0136 S.3     1  LIG1       -0.1418
      8 H           0.8517   -3.3893   -0.4119 H       1  LIG1        0.1071
      9 C           0.5002   -0.5197    1.2644 C.3     1  LIG1       -0.0376
     10 H           0.5224    0.4874    1.6812 H       1  LIG1        0.0278
     11 H           1.5176   -0.8125    0.9956 H       1  LIG1        0.0278
     12 H           0.1297   -1.2177    2.0158 H       1  LIG1        0.0278
     13 C          -0.6819    1.9459   -0.2738 C.ar    1  LIG1        0.0402
     14 C           0.5144    2.6070   -0.2334 C.ar    1  LIG1        0.0236
     15 C           0.3886    4.0010    0.1135 C.ar    1  LIG1       -0.0214
     16 C          -0.9203    4.3510    0.2888 C.ar    1  LIG1        0.0315
     17 S          -1.9938    3.0087    0.0921 S.2     1  LIG1       -0.0858
     18 S           2.0617    1.7968   -0.5467 S.3     1  LIG1       -0.1412
     19 H           2.5823    2.7896   -1.2764 H       1  LIG1        0.1071
     20 C           1.5622    4.9352    0.2789 C.3     1  LIG1       -0.0375
     21 H           1.2390    5.8517    0.7726 H       1  LIG1        0.0278
     22 H           1.9905    5.1969   -0.6921 H       1  LIG1        0.0278
     23 H           2.3323    4.4525    0.8826 H       1  LIG1        0.0278
     24 C          -1.4487    5.6866    0.6003 C.ar    1  LIG1        0.0396
     25 C          -1.3151    6.8314   -0.1345 C.ar    1  LIG1        0.0230
     26 C          -1.9573    7.9758    0.4690 C.ar    1  LIG1       -0.0297
     27 C          -2.5679    7.6352    1.6350 C.ar    1  LIG1       -0.0197
     28 S          -2.3605    5.9770    2.0419 S.2     1  LIG1       -0.0947
     29 H          -3.1264    8.2869    2.2886 H       1  LIG1        0.0696
     30 S          -0.3971    6.8902   -1.6525 S.3     1  LIG1       -0.1412
     31 H          -1.3105    7.5914   -2.3355 H       1  LIG1        0.1071
     32 C          -1.9550    9.3593   -0.1366 C.3     1  LIG1       -0.0382
     33 H          -2.3845   10.0739    0.5640 H       1  LIG1        0.0278
     34 H          -2.5457    9.3798   -1.0551 H       1  LIG1        0.0278
     35 H          -0.9348    9.6626   -0.3759 H       1  LIG1        0.0278
@<TRIPOS>BOND
     1    31    30    1
     2     6     1    1
     3     5     1   ar
     4     5     4   ar
     5    30    25    1
     6     1     2   ar
     7    19    18    1
     8    34    32    1
     9    22    20    1
    10     4    13    1
    11     4     3   ar
    12     2     7    1
    13     2     3   ar
    14    18    14    1
    15     8     7    1
    16    35    32    1
    17    13    14   ar
    18    13    17   ar
    19    14    15   ar
    20    32    26    1
    21    32    33    1
    22    25    26   ar
    23    25    24   ar
    24     3     9    1
    25    17    16   ar
    26    15    20    1
    27    15    16   ar
    28    20    21    1
    29    20    23    1
    30    16    24    1
    31    26    27   ar
    32    24    28   ar
    33    11     9    1
    34     9    10    1
    35     9    12    1
    36    27    28   ar
    37    27    29    1
