@<TRIPOS>MOLECULE
mol_data/opt/m06hf/geoms/mol2/5gi5gi-.out
 24 25 0 0 0
SMALL
GASTEIGER

@<TRIPOS>ATOM
      1 C          -1.9440   -1.6882   -0.8601 C.ar    1  LIG1       -0.0103
      2 C          -0.7534   -1.7892   -0.2111 C.ar    1  LIG1        0.0153
      3 C          -0.2373   -0.5185    0.2369 C.ar    1  LIG1       -0.0220
      4 C          -1.0706    0.5023   -0.1196 C.ar    1  LIG1        0.0309
      5 S          -2.4744   -0.0596   -0.9656 S.2     1  LIG1       -0.0947
      6 H          -2.5242   -2.4936   -1.2805 H       1  LIG1        0.0704
      7 S           0.0161   -3.3585    0.1254 S.3     1  LIG1       -0.1418
      8 H           1.0697   -3.1922   -0.6863 H       1  LIG1        0.1071
      9 C           1.0438   -0.3634    1.0180 C.3     1  LIG1       -0.0376
     10 H           1.1081    0.6423    1.4337 H       1  LIG1        0.0278
     11 H           1.9071   -0.5335    0.3710 H       1  LIG1        0.0278
     12 H           1.0694   -1.0953    1.8259 H       1  LIG1        0.0278
     13 C          -0.8849    1.9377    0.1378 C.ar    1  LIG1        0.0396
     14 C           0.1366    2.7451   -0.2794 C.ar    1  LIG1        0.0230
     15 C           0.0072    4.1108    0.1719 C.ar    1  LIG1       -0.0297
     16 C          -1.1272    4.2796    0.9010 C.ar    1  LIG1       -0.0197
     17 S          -2.0262    2.8249    1.0869 S.2     1  LIG1       -0.0947
     18 H          -1.4770    5.1938    1.3542 H       1  LIG1        0.0696
     19 S           1.5046    2.1412   -1.2389 S.3     1  LIG1       -0.1412
     20 H           1.4031    3.0558   -2.2123 H       1  LIG1        0.1071
     21 C           1.0086    5.1974   -0.1394 C.3     1  LIG1       -0.0382
     22 H           0.7544    6.1061    0.4039 H       1  LIG1        0.0278
     23 H           1.0157    5.4232   -1.2078 H       1  LIG1        0.0278
     24 H           2.0100    4.8747    0.1487 H       1  LIG1        0.0278
@<TRIPOS>BOND
     1    20    19    1
     2     6     1    1
     3    19    14    1
     4    23    21    1
     5     5     1   ar
     6     5     4   ar
     7     1     2   ar
     8     8     7    1
     9    14    13   ar
    10    14    15   ar
    11     2     7    1
    12     2     3   ar
    13    21    24    1
    14    21    15    1
    15    21    22    1
    16     4    13    1
    17     4     3   ar
    18    13    17   ar
    19    15    16   ar
    20     3     9    1
    21    11     9    1
    22    16    17   ar
    23    16    18    1
    24     9    10    1
    25     9    12    1
