@<TRIPOS>MOLECULE
mol_data/opt/m06hf/geoms/mol2/5gi5gi5gi-.out
 35 37 0 0 0
SMALL
GASTEIGER

@<TRIPOS>ATOM
      1 C          -1.6659   -1.5847   -1.6235 C.ar    1  LIG1       -0.0103
      2 C          -0.8332   -1.7860   -0.5678 C.ar    1  LIG1        0.0153
      3 C          -0.3942   -0.5611    0.0561 C.ar    1  LIG1       -0.0220
      4 C          -0.9072    0.5287   -0.5885 C.ar    1  LIG1        0.0309
      5 S          -1.9317    0.0857   -1.9148 S.2     1  LIG1       -0.0947
      6 H          -2.1240   -2.3397   -2.2420 H       1  LIG1        0.0704
      7 S          -0.4078   -3.4131    0.0173 S.3     1  LIG1       -0.1418
      8 H           0.8671   -3.3878   -0.3890 H       1  LIG1        0.1071
      9 C           0.4864   -0.5177    1.2803 C.3     1  LIG1       -0.0376
     10 H           0.5009    0.4897    1.6968 H       1  LIG1        0.0278
     11 H           1.5080   -0.8093    1.0270 H       1  LIG1        0.0278
     12 H           0.1055   -1.2157    2.0265 H       1  LIG1        0.0278
     13 C          -0.6761    1.9454   -0.2768 C.ar    1  LIG1        0.0402
     14 C           0.5185    2.6081   -0.2186 C.ar    1  LIG1        0.0236
     15 C           0.3856    4.0022    0.1257 C.ar    1  LIG1       -0.0214
     16 C          -0.9262    4.3505    0.2805 C.ar    1  LIG1        0.0315
     17 S          -1.9949    3.0067    0.0683 S.2     1  LIG1       -0.0858
     18 S           2.0715    1.7999   -0.5079 S.3     1  LIG1       -0.1412
     19 H           2.6018    2.7931   -1.2299 H       1  LIG1        0.1071
     20 C           1.5553    4.9378    0.3089 C.3     1  LIG1       -0.0375
     21 H           1.2235    5.8541    0.7973 H       1  LIG1        0.0278
     22 H           1.9983    5.1998   -0.6555 H       1  LIG1        0.0278
     23 H           2.3166    4.4562    0.9245 H       1  LIG1        0.0278
     24 C          -1.4611    5.6856    0.5832 C.ar    1  LIG1        0.0396
     25 C          -1.3168    6.8306   -0.1493 C.ar    1  LIG1        0.0230
     26 C          -1.9698    7.9743    0.4437 C.ar    1  LIG1       -0.0297
     27 C          -2.5990    7.6330    1.5996 C.ar    1  LIG1       -0.0197
     28 S          -2.3964    5.9751    2.0099 S.2     1  LIG1       -0.0947
     29 H          -3.1688    8.2840    2.2440 H       1  LIG1        0.0696
     30 S          -0.3751    6.8903   -1.6528 S.3     1  LIG1       -0.1412
     31 H          -1.2786    7.5903   -2.3500 H       1  LIG1        0.1071
     32 C          -1.9593    9.3578   -0.1617 C.3     1  LIG1       -0.0382
     33 H          -2.4010   10.0719    0.5317 H       1  LIG1        0.0278
     34 H          -2.5349    9.3777   -1.0898 H       1  LIG1        0.0278
     35 H          -0.9356    9.6622   -0.3843 H       1  LIG1        0.0278
@<TRIPOS>BOND
     1    31    30    1
     2     6     1    1
     3     5     1   ar
     4     5     4   ar
     5    30    25    1
     6     1     2   ar
     7    19    18    1
     8    34    32    1
     9    22    20    1
    10     4    13    1
    11     4     3   ar
    12     2     7    1
    13     2     3   ar
    14    18    14    1
    15     8     7    1
    16    35    32    1
    17    13    14   ar
    18    13    17   ar
    19    14    15   ar
    20    32    26    1
    21    32    33    1
    22    25    26   ar
    23    25    24   ar
    24     3     9    1
    25    17    16   ar
    26    15    16   ar
    27    15    20    1
    28    16    24    1
    29    20    21    1
    30    20    23    1
    31    26    27   ar
    32    24    28   ar
    33    11     9    1
    34     9    10    1
    35     9    12    1
    36    27    28   ar
    37    27    29    1
