@<TRIPOS>MOLECULE
mol_data/opt/m06hf/geoms/mol2/5gl.out
 14 14 0 0 0
SMALL
GASTEIGER

@<TRIPOS>ATOM
      1 C          -2.2712   -1.6233    0.0005 C.ar    1  LIG1       -0.0075
      2 C          -0.9150   -1.7622   -0.0004 C.ar    1  LIG1        0.0535
      3 C          -0.2606   -0.4625   -0.0006 C.ar    1  LIG1        0.1402
      4 C          -1.1634    0.5578    0.0001 C.ar    1  LIG1        0.0185
      5 S          -2.7843    0.0089    0.0011 S.2     1  LIG1       -0.1002
      6 H          -2.9936   -2.4246    0.0008 H       1  LIG1        0.0705
      7 H          -0.9114    1.6049    0.0001 H       1  LIG1        0.0730
      8 S          -0.3101   -3.4470   -0.0012 S.3     1  LIG1       -0.1386
      9 H           0.9964   -3.2059   -0.0016 H       1  LIG1        0.1072
     10 O           1.0575   -0.1200   -0.0014 O.3     1  LIG1       -0.4935
     11 C           2.0912   -1.0803   -0.0009 C.3     1  LIG1        0.0789
     12 H           3.0149   -0.5068   -0.0010 H       1  LIG1        0.0660
     13 H           2.0564   -1.6966    0.9009 H       1  LIG1        0.0660
     14 H           2.0567   -1.6972   -0.9022 H       1  LIG1        0.0660
@<TRIPOS>BOND
     1    14    11    1
     2     9     8    1
     3    10    11    1
     4    10     3    1
     5     8     2    1
     6    12    11    1
     7    11    13    1
     8     3     2   ar
     9     3     4   ar
    10     2     1   ar
    11     4     7    1
    12     4     5   ar
    13     1     6    1
    14     1     5   ar
