@<TRIPOS>MOLECULE
mol_data/opt/m06hf/geoms/mol2/5gl5gl5gl5gl-.out
 50 53 0 0 0
SMALL
GASTEIGER

@<TRIPOS>ATOM
      1 C          -0.7477   -2.4396   -1.2505 C.ar    1  LIG1       -0.0069
      2 C           0.2572   -2.2590   -0.3556 C.ar    1  LIG1        0.0542
      3 C           0.3136   -0.9013    0.1162 C.ar    1  LIG1        0.1484
      4 C          -0.6476   -0.0984   -0.4258 C.ar    1  LIG1        0.0698
      5 S          -1.6354   -0.9864   -1.5343 S.2     1  LIG1       -0.0912
      6 H          -1.0242   -3.3517   -1.7539 H       1  LIG1        0.0706
      7 S           1.4134   -3.4930    0.1636 S.3     1  LIG1       -0.1386
      8 H           1.7458   -2.8418    1.2834 H       1  LIG1        0.1072
      9 O           1.2411   -0.4954    1.0265 O.3     1  LIG1       -0.4928
     10 C           2.3118    0.2763    0.4682 C.3     1  LIG1        0.0789
     11 H           2.9501    0.5460    1.3053 H       1  LIG1        0.0660
     12 H           2.8609   -0.3257   -0.2576 H       1  LIG1        0.0660
     13 H           1.9120    1.1740   -0.0063 H       1  LIG1        0.0660
     14 C          -0.8509    1.3184   -0.1365 C.ar    1  LIG1        0.0468
     15 C          -0.7593    1.9504    1.0708 C.ar    1  LIG1        0.0626
     16 C          -1.0131    3.3594    0.9444 C.ar    1  LIG1        0.1491
     17 C          -1.3089    3.7691   -0.3256 C.ar    1  LIG1        0.0704
     18 S          -1.2421    2.4237   -1.4215 S.2     1  LIG1       -0.0822
     19 S          -0.4214    1.1989    2.6350 S.3     1  LIG1       -0.1380
     20 H          -1.1189    2.1304    3.3015 H       1  LIG1        0.1072
     21 O          -1.0116    4.1960    2.0198 O.3     1  LIG1       -0.4928
     22 C           0.2830    4.7407    2.3193 C.3     1  LIG1        0.0789
     23 H           0.1384    5.4088    3.1643 H       1  LIG1        0.0660
     24 H           0.9699    3.9338    2.5782 H       1  LIG1        0.0660
     25 H           0.6539    5.2972    1.4579 H       1  LIG1        0.0660
     26 C          -1.6714    5.1299   -0.7171 C.ar    1  LIG1        0.0468
     27 C          -1.7548    5.6737   -1.9696 C.ar    1  LIG1        0.0626
     28 C          -2.1745    7.0434   -1.9386 C.ar    1  LIG1        0.1491
     29 C          -2.4092    7.5234   -0.6825 C.ar    1  LIG1        0.0704
     30 S          -2.1139    6.2954    0.5048 S.2     1  LIG1       -0.0822
     31 S          -1.3912    4.8678   -3.5014 S.3     1  LIG1       -0.1380
     32 H          -2.2286    5.6470   -4.1980 H       1  LIG1        0.1072
     33 O          -2.3469    7.7737   -3.0778 O.3     1  LIG1       -0.4928
     34 C          -1.1602    8.4711   -3.4865 C.3     1  LIG1        0.0789
     35 H          -1.4312    9.0297   -4.3785 H       1  LIG1        0.0660
     36 H          -0.8431    9.1507   -2.6949 H       1  LIG1        0.0660
     37 H          -0.3700    7.7524   -3.7096 H       1  LIG1        0.0660
     38 C          -2.8708    8.8718   -0.3541 C.ar    1  LIG1        0.0462
     39 C          -2.7965    9.5349    0.8378 C.ar    1  LIG1        0.0619
     40 C          -3.3974   10.8466    0.7665 C.ar    1  LIG1        0.1408
     41 C          -3.9043   11.1362   -0.4589 C.ar    1  LIG1        0.0191
     42 S          -3.6658    9.8380   -1.5705 S.2     1  LIG1       -0.0912
     43 H          -4.3935   12.0396   -0.7818 H       1  LIG1        0.0731
     44 S          -2.0471    8.9429    2.3263 S.3     1  LIG1       -0.1380
     45 H          -2.4113   10.0146    3.0371 H       1  LIG1        0.1072
     46 O          -3.3913   11.6221    1.8759 O.3     1  LIG1       -0.4935
     47 C          -3.9883   12.9002    1.7423 C.3     1  LIG1        0.0789
     48 H          -3.9030   13.3802    2.7126 H       1  LIG1        0.0660
     49 H          -3.4577   13.4843    0.9865 H       1  LIG1        0.0660
     50 H          -5.0402   12.7965    1.4659 H       1  LIG1        0.0660
@<TRIPOS>BOND
     1    35    34    1
     2    32    31    1
     3    37    34    1
     4    31    27    1
     5    34    33    1
     6    34    36    1
     7    33    28    1
     8    27    28   ar
     9    27    26   ar
    10    28    29   ar
    11     6     1    1
    12    42    41   ar
    13    42    38   ar
    14     5     1   ar
    15     5     4   ar
    16    18    17   ar
    17    18    14   ar
    18     1     2   ar
    19    43    41    1
    20    26    17    1
    21    26    30   ar
    22    29    38    1
    23    29    30   ar
    24    41    40   ar
    25     4    14    1
    26     4     3   ar
    27     2     3   ar
    28     2     7    1
    29    38    39   ar
    30    17    16   ar
    31    12    10    1
    32    14    15   ar
    33    13    10    1
    34     3     9    1
    35     7     8    1
    36    10     9    1
    37    10    11    1
    38    40    39   ar
    39    40    46    1
    40    39    44    1
    41    16    15   ar
    42    16    21    1
    43    49    47    1
    44    15    19    1
    45    25    22    1
    46    50    47    1
    47    47    46    1
    48    47    48    1
    49    21    22    1
    50    22    24    1
    51    22    23    1
    52    44    45    1
    53    19    20    1
