@<TRIPOS>MOLECULE
mol_data/opt/m06hf/geoms/mol2/5gl5gl-5gl5gl-.out
 50 53 0 0 0
SMALL
GASTEIGER

@<TRIPOS>ATOM
      1 C          -1.3813   -2.2424    2.0096 C.ar    1  LIG1       -0.0069
      2 C          -0.5035   -2.3012    0.9759 C.ar    1  LIG1        0.0542
      3 C          -0.1021   -0.9898    0.5422 C.ar    1  LIG1        0.1484
      4 C          -0.6783    0.0174    1.2590 C.ar    1  LIG1        0.0698
      5 S          -1.7331   -0.6193    2.4746 S.2     1  LIG1       -0.0912
      6 H          -1.8321   -3.0681    2.5358 H       1  LIG1        0.0706
      7 S           0.0579   -3.7793    0.1820 S.3     1  LIG1       -0.1386
      8 H           1.2188   -3.2484   -0.2174 H       1  LIG1        0.1072
      9 O           0.7745   -0.8028   -0.4819 O.3     1  LIG1       -0.4928
     10 C           0.1455   -0.4662   -1.7243 C.3     1  LIG1        0.0789
     11 H           0.9517   -0.3356   -2.4413 H       1  LIG1        0.0660
     12 H          -0.5165   -1.2763   -2.0338 H       1  LIG1        0.0660
     13 H          -0.4172    0.4623   -1.6130 H       1  LIG1        0.0660
     14 C          -0.4627    1.4474    1.0514 C.ar    1  LIG1        0.0468
     15 C           0.7187    2.0889    0.8072 C.ar    1  LIG1        0.0626
     16 C           0.5264    3.5052    0.6385 C.ar    1  LIG1        0.1491
     17 C          -0.7724    3.9038    0.7598 C.ar    1  LIG1        0.0704
     18 S          -1.8068    2.5503    1.0655 S.2     1  LIG1       -0.0822
     19 S           2.3146    1.3427    0.6738 S.3     1  LIG1       -0.1380
     20 H           2.9382    2.4347    1.1372 H       1  LIG1        0.1072
     21 O           1.5667    4.3489    0.4041 O.3     1  LIG1       -0.4928
     22 C           1.7019    4.7452   -0.9655 C.3     1  LIG1        0.0789
     23 H           2.5499    5.4239   -0.9957 H       1  LIG1        0.0660
     24 H           1.8890    3.8677   -1.5862 H       1  LIG1        0.0660
     25 H           0.7955    5.2586   -1.2920 H       1  LIG1        0.0660
     26 C          -1.2598    5.2733    0.6162 C.ar    1  LIG1        0.0468
     27 C          -0.7010    6.4190    1.1088 C.ar    1  LIG1        0.0626
     28 C          -1.4420    7.5859    0.7050 C.ar    1  LIG1        0.1491
     29 C          -2.5346    7.3100   -0.0627 C.ar    1  LIG1        0.0704
     30 S          -2.6805    5.6044   -0.3329 S.2     1  LIG1       -0.0822
     31 S           0.7584    6.5366    2.0946 S.3     1  LIG1       -0.1380
     32 H           0.3305    7.6403    2.7208 H       1  LIG1        0.1072
     33 O          -1.0703    8.8398    1.0784 O.3     1  LIG1       -0.4928
     34 C          -0.3248    9.5432    0.0776 C.3     1  LIG1        0.0789
     35 H          -0.1104   10.5216    0.4991 H       1  LIG1        0.0660
     36 H           0.6003    9.0056   -0.1375 H       1  LIG1        0.0660
     37 H          -0.9281    9.6437   -0.8263 H       1  LIG1        0.0660
     38 C          -3.4507    8.2870   -0.6460 C.ar    1  LIG1        0.0462
     39 C          -3.9310    9.4390   -0.0906 C.ar    1  LIG1        0.0619
     40 C          -4.7969   10.1483   -1.0065 C.ar    1  LIG1        0.1408
     41 C          -4.9537    9.5216   -2.1988 C.ar    1  LIG1        0.0191
     42 S          -4.0377    8.0665   -2.2687 S.2     1  LIG1       -0.0912
     43 H          -5.5694    9.8447   -3.0221 H       1  LIG1        0.0731
     44 S          -3.6279   10.0322    1.5459 S.3     1  LIG1       -0.1380
     45 H          -4.7950   10.6919    1.5760 H       1  LIG1        0.1072
     46 O          -5.4146   11.3121   -0.6555 O.3     1  LIG1       -0.4935
     47 C          -4.6159   12.4726   -0.9057 C.3     1  LIG1        0.0789
     48 H          -5.1788   13.3190   -0.5211 H       1  LIG1        0.0660
     49 H          -3.6574   12.3892   -0.3898 H       1  LIG1        0.0660
     50 H          -4.4538   12.5828   -1.9794 H       1  LIG1        0.0660
@<TRIPOS>BOND
     1    43    41    1
     2    11    10    1
     3    42    41   ar
     4    42    38   ar
     5    41    40   ar
     6    12    10    1
     7    50    47    1
     8    10    13    1
     9    10     9    1
    10    24    22    1
    11    25    22    1
    12    40    46    1
    13    40    39   ar
    14    23    22    1
    15    22    21    1
    16    47    46    1
    17    47    48    1
    18    47    49    1
    19    37    34    1
    20    38    39   ar
    21    38    29    1
    22     9     3    1
    23    30    29   ar
    24    30    26   ar
    25     8     7    1
    26    36    34    1
    27    39    44    1
    28    29    28   ar
    29    34    35    1
    30    34    33    1
    31     7     2    1
    32    21    16    1
    33     3     2   ar
    34     3     4   ar
    35    26    17    1
    36    26    27   ar
    37    16    17   ar
    38    16    15   ar
    39    19    15    1
    40    19    20    1
    41    28    33    1
    42    28    27   ar
    43    17    18   ar
    44    15    14   ar
    45     2     1   ar
    46    14    18   ar
    47    14     4    1
    48    27    31    1
    49     4     5   ar
    50    44    45    1
    51     1     5   ar
    52     1     6    1
    53    31    32    1
