@<TRIPOS>MOLECULE
mol_data/opt/m06hf/geoms/mol2/5gl5gl5gl5gl.out
 50 53 0 0 0
SMALL
GASTEIGER

@<TRIPOS>ATOM
      1 C           0.1617   -2.0498   -2.2193 C.ar    1  LIG1       -0.0069
      2 C           0.9126   -2.0028   -1.0889 C.ar    1  LIG1        0.0542
      3 C           0.6922   -0.7865   -0.3543 C.ar    1  LIG1        0.1484
      4 C          -0.2167    0.0441   -0.9416 C.ar    1  LIG1        0.0698
      5 S          -0.8127   -0.6411   -2.4144 S.2     1  LIG1       -0.0912
      6 H           0.1189   -2.8450   -2.9458 H       1  LIG1        0.0706
      7 S           2.0821   -3.2283   -0.5803 S.3     1  LIG1       -0.1386
      8 H           1.9929   -2.9251    0.7199 H       1  LIG1        0.1072
      9 O           1.3340   -0.5198    0.8160 O.3     1  LIG1       -0.4928
     10 C           2.4477    0.3715    0.6745 C.3     1  LIG1        0.0789
     11 H           2.8467    0.5102    1.6758 H       1  LIG1        0.0660
     12 H           3.1973   -0.0763    0.0201 H       1  LIG1        0.0660
     13 H           2.1081    1.3249    0.2666 H       1  LIG1        0.0660
     14 C          -0.6343    1.3472   -0.4316 C.ar    1  LIG1        0.0468
     15 C          -0.9109    1.6847    0.8625 C.ar    1  LIG1        0.0626
     16 C          -1.2477    3.0761    0.9777 C.ar    1  LIG1        0.1491
     17 C          -1.2464    3.7596   -0.2079 C.ar    1  LIG1        0.0704
     18 S          -0.7598    2.7084   -1.5029 S.2     1  LIG1       -0.0822
     19 S          -0.9059    0.5887    2.2506 S.3     1  LIG1       -0.1380
     20 H          -1.9233    1.2265    2.8478 H       1  LIG1        0.1072
     21 O          -1.5911    3.6456    2.1657 O.3     1  LIG1       -0.4928
     22 C          -0.4595    4.0250    2.9673 C.3     1  LIG1        0.0789
     23 H          -0.8693    4.4694    3.8705 H       1  LIG1        0.0660
     24 H           0.1328    3.1419    3.2084 H       1  LIG1        0.0660
     25 H           0.1442    4.7545    2.4259 H       1  LIG1        0.0660
     26 C          -1.6017    5.1695   -0.3730 C.ar    1  LIG1        0.0468
     27 C          -1.5368    5.9550   -1.4973 C.ar    1  LIG1        0.0626
     28 C          -1.9509    7.3065   -1.2476 C.ar    1  LIG1        0.1491
     29 C          -2.3455    7.5183    0.0404 C.ar    1  LIG1        0.0704
     30 S          -2.2152    6.0759    0.9821 S.2     1  LIG1       -0.0822
     31 S          -0.9730    5.4630   -3.1069 S.3     1  LIG1       -0.1380
     32 H          -2.0665    4.7638   -3.4396 H       1  LIG1        0.1072
     33 O          -1.9330    8.2656   -2.2078 O.3     1  LIG1       -0.4928
     34 C          -3.2188    8.5938   -2.7384 C.3     1  LIG1        0.0789
     35 H          -3.0452    9.3707   -3.4780 H       1  LIG1        0.0660
     36 H          -3.6618    7.7140   -3.2080 H       1  LIG1        0.0660
     37 H          -3.8675    8.9659   -1.9426 H       1  LIG1        0.0660
     38 C          -2.8021    8.7858    0.6051 C.ar    1  LIG1        0.0462
     39 C          -2.2700   10.0284    0.4085 C.ar    1  LIG1        0.0619
     40 C          -2.9886   11.0392    1.1499 C.ar    1  LIG1        0.1408
     41 C          -4.0236   10.5436    1.8740 C.ar    1  LIG1        0.0191
     42 S          -4.1801    8.8433    1.6643 S.2     1  LIG1       -0.0912
     43 H          -4.6829   11.0984    2.5211 H       1  LIG1        0.0731
     44 S          -0.8604   10.4140   -0.5856 S.3     1  LIG1       -0.1380
     45 H          -0.5056   11.4373    0.2041 H       1  LIG1        0.1072
     46 O          -2.6038   12.3472    1.1401 O.3     1  LIG1       -0.4935
     47 C          -3.1862   13.1019    0.0738 C.3     1  LIG1        0.0789
     48 H          -2.7643   14.1013    0.1428 H       1  LIG1        0.0660
     49 H          -2.9351   12.6517   -0.8884 H       1  LIG1        0.0660
     50 H          -4.2699   13.1394    0.1974 H       1  LIG1        0.0660
@<TRIPOS>BOND
     1    35    34    1
     2    32    31    1
     3    36    34    1
     4    31    27    1
     5     6     1    1
     6    34    33    1
     7    34    37    1
     8     5     1   ar
     9     5     4   ar
    10     1     2   ar
    11    33    28    1
    12    18    14   ar
    13    18    17   ar
    14    27    28   ar
    15    27    26   ar
    16    28    29   ar
    17     2     7    1
    18     2     3   ar
    19     4    14    1
    20     4     3   ar
    21    49    47    1
    22    44    45    1
    23    44    39    1
    24     7     8    1
    25    14    15   ar
    26    26    17    1
    27    26    30   ar
    28     3     9    1
    29    17    16   ar
    30    12    10    1
    31    29    38    1
    32    29    30   ar
    33    47    48    1
    34    47    50    1
    35    47    46    1
    36    13    10    1
    37    39    38   ar
    38    39    40   ar
    39    38    42   ar
    40    10     9    1
    41    10    11    1
    42    15    16   ar
    43    15    19    1
    44    16    21    1
    45    46    40    1
    46    40    41   ar
    47    42    41   ar
    48    41    43    1
    49    21    22    1
    50    19    20    1
    51    25    22    1
    52    22    24    1
    53    22    23    1
