@<TRIPOS>MOLECULE
mol_data/opt/m06hf/geoms/mol2/5gl5gl-5gl-5gl.out
 50 53 0 0 0
SMALL
GASTEIGER

@<TRIPOS>ATOM
      1 C          -1.4204   -2.2544    1.9612 C.ar    1  LIG1       -0.0069
      2 C          -0.5200   -2.3066    0.9468 C.ar    1  LIG1        0.0542
      3 C          -0.1101   -0.9923    0.5298 C.ar    1  LIG1        0.1484
      4 C          -0.7028    0.0102    1.2396 C.ar    1  LIG1        0.0698
      5 S          -1.7836   -0.6343    2.4279 S.2     1  LIG1       -0.0912
      6 H          -1.8820   -3.0835    2.4725 H       1  LIG1        0.0706
      7 S           0.0599   -3.7796    0.1569 S.3     1  LIG1       -0.1386
      8 H           1.2288   -3.2454   -0.2139 H       1  LIG1        0.1072
      9 O           0.7888   -0.7988   -0.4736 O.3     1  LIG1       -0.4928
     10 C           0.1871   -0.4557   -1.7277 C.3     1  LIG1        0.0789
     11 H           1.0088   -0.3205   -2.4260 H       1  LIG1        0.0660
     12 H          -0.4672   -1.2645   -2.0563 H       1  LIG1        0.0660
     13 H          -0.3787    0.4718   -1.6236 H       1  LIG1        0.0660
     14 C          -0.4837    1.4415    1.0453 C.ar    1  LIG1        0.0468
     15 C           0.7023    2.0852    0.8312 C.ar    1  LIG1        0.0626
     16 C           0.5128    3.5024    0.6668 C.ar    1  LIG1        0.1491
     17 C          -0.7887    3.8995    0.7617 C.ar    1  LIG1        0.0704
     18 S          -1.8286    2.5435    1.0359 S.2     1  LIG1       -0.0822
     19 S           2.3015    1.3409    0.7289 S.3     1  LIG1       -0.1380
     20 H           2.9136    2.4306    1.2127 H       1  LIG1        0.1072
     21 O           1.5574    4.3482    0.4608 O.3     1  LIG1       -0.4928
     22 C           1.7228    4.7527   -0.9032 C.3     1  LIG1        0.0789
     23 H           2.5707    5.4323   -0.9104 H       1  LIG1        0.0660
     24 H           1.9246    3.8790   -1.5246 H       1  LIG1        0.0660
     25 H           0.8234    5.2673   -1.2468 H       1  LIG1        0.0660
     26 C          -1.2737    5.2696    0.6158 C.ar    1  LIG1        0.0468
     27 C          -0.7267    6.4126    1.1275 C.ar    1  LIG1        0.0626
     28 C          -1.4593    7.5815    0.7144 C.ar    1  LIG1        0.1491
     29 C          -2.5346    7.3097   -0.0788 C.ar    1  LIG1        0.0704
     30 S          -2.6735    5.6056   -0.3622 S.2     1  LIG1       -0.0822
     31 S           0.7106    6.5250    2.1459 S.3     1  LIG1       -0.1380
     32 H           0.2685    7.6250    2.7689 H       1  LIG1        0.1072
     33 O          -1.0967    8.8333    1.1033 O.3     1  LIG1       -0.4928
     34 C          -0.3300    9.5431    0.1233 C.3     1  LIG1        0.0789
     35 H          -0.1255   10.5191    0.5552 H       1  LIG1        0.0660
     36 H           0.6001    9.0073   -0.0745 H       1  LIG1        0.0660
     37 H          -0.9133    9.6486   -0.7930 H       1  LIG1        0.0660
     38 C          -3.4380    8.2897   -0.6766 C.ar    1  LIG1        0.0462
     39 C          -3.9311    9.4383   -0.1253 C.ar    1  LIG1        0.0619
     40 C          -4.7769   10.1526   -1.0560 C.ar    1  LIG1        0.1408
     41 C          -4.9069    9.5328   -2.2552 C.ar    1  LIG1        0.0191
     42 S          -3.9887    8.0785   -2.3133 S.2     1  LIG1       -0.0912
     43 H          -5.5044    9.8604   -3.0900 H       1  LIG1        0.0731
     44 S          -3.6649   10.0221    1.5210 S.3     1  LIG1       -0.1380
     45 H          -4.8327   10.6810    1.5290 H       1  LIG1        0.1072
     46 O          -5.4029   11.3140   -0.7120 O.3     1  LIG1       -0.4935
     47 C          -4.5995   12.4762   -0.9374 C.3     1  LIG1        0.0789
     48 H          -5.1711   13.3201   -0.5604 H       1  LIG1        0.0660
     49 H          -3.6526   12.3901   -0.4010 H       1  LIG1        0.0660
     50 H          -4.4136   12.5930   -2.0066 H       1  LIG1        0.0660
@<TRIPOS>BOND
     1    43    41    1
     2    11    10    1
     3    42    41   ar
     4    42    38   ar
     5    41    40   ar
     6    12    10    1
     7    50    47    1
     8    10    13    1
     9    10     9    1
    10    24    22    1
    11    25    22    1
    12    40    46    1
    13    40    39   ar
    14    47    46    1
    15    47    48    1
    16    47    49    1
    17    23    22    1
    18    22    21    1
    19    37    34    1
    20    38    39   ar
    21    38    29    1
    22     9     3    1
    23    30    29   ar
    24    30    26   ar
    25     8     7    1
    26    39    44    1
    27    29    28   ar
    28    36    34    1
    29    34    35    1
    30    34    33    1
    31     7     2    1
    32    21    16    1
    33     3     2   ar
    34     3     4   ar
    35    26    17    1
    36    26    27   ar
    37    16    17   ar
    38    16    15   ar
    39    28    33    1
    40    28    27   ar
    41    19    15    1
    42    19    20    1
    43    17    18   ar
    44    15    14   ar
    45     2     1   ar
    46    18    14   ar
    47    14     4    1
    48    27    31    1
    49     4     5   ar
    50    44    45    1
    51     1     5   ar
    52     1     6    1
    53    31    32    1
