@<TRIPOS>MOLECULE
mol_data/opt/m06hf/geoms/mol2/5gl5gl5gl-5gl.out
 50 53 0 0 0
SMALL
GASTEIGER

@<TRIPOS>ATOM
      1 C          -1.4130   -2.2295    2.0326 C.ar    1  LIG1       -0.0069
      2 C          -0.5228   -2.2957    1.0100 C.ar    1  LIG1        0.0542
      3 C          -0.1150   -0.9874    0.5729 C.ar    1  LIG1        0.1484
      4 C          -0.6987    0.0248    1.2763 C.ar    1  LIG1        0.0698
      5 S          -1.7687   -0.6031    2.4831 S.2     1  LIG1       -0.0912
      6 H          -1.8708   -3.0514    2.5586 H       1  LIG1        0.0706
      7 S           0.0466   -3.7793    0.2324 S.3     1  LIG1       -0.1386
      8 H           1.2126   -3.2519   -0.1566 H       1  LIG1        0.1072
      9 O           0.7741   -0.8077   -0.4419 O.3     1  LIG1       -0.4928
     10 C           0.1602   -0.4789   -1.6939 C.3     1  LIG1        0.0789
     11 H           0.9750   -0.3538   -2.4021 H       1  LIG1        0.0660
     12 H          -0.4989   -1.2903   -2.0058 H       1  LIG1        0.0660
     13 H          -0.4028    0.4509   -1.5954 H       1  LIG1        0.0660
     14 C          -0.4791    1.4532    1.0623 C.ar    1  LIG1        0.0468
     15 C           0.7058    2.0920    0.8283 C.ar    1  LIG1        0.0626
     16 C           0.5171    3.5074    0.6482 C.ar    1  LIG1        0.1491
     17 C          -0.7826    3.9081    0.7513 C.ar    1  LIG1        0.0704
     18 S          -1.8221    2.5576    1.0531 S.2     1  LIG1       -0.0822
     19 S           2.3025    1.3435    0.7189 S.3     1  LIG1       -0.1380
     20 H           2.9213    2.4373    1.1844 H       1  LIG1        0.1072
     21 O           1.5611    4.3485    0.4212 O.3     1  LIG1       -0.4928
     22 C           1.7128    4.7370   -0.9490 C.3     1  LIG1        0.0789
     23 H           2.5619    5.4147   -0.9730 H       1  LIG1        0.0660
     24 H           1.9063    3.8559   -1.5625 H       1  LIG1        0.0660
     25 H           0.8109    5.2495   -1.2890 H       1  LIG1        0.0660
     26 C          -1.2668    5.2772    0.5934 C.ar    1  LIG1        0.0468
     27 C          -0.7126    6.4254    1.0854 C.ar    1  LIG1        0.0626
     28 C          -1.4473    7.5904    0.6654 C.ar    1  LIG1        0.1491
     29 C          -2.5311    7.3109   -0.1134 C.ar    1  LIG1        0.0704
     30 S          -2.6758    5.6037   -0.3744 S.2     1  LIG1       -0.0822
     31 S           0.7352    6.5477    2.0878 S.3     1  LIG1       -0.1380
     32 H           0.3011    7.6558    2.7017 H       1  LIG1        0.1072
     33 O          -1.0786    8.8463    1.0352 O.3     1  LIG1       -0.4928
     34 C          -0.3206    9.5425    0.0388 C.3     1  LIG1        0.0789
     35 H          -0.1100   10.5233    0.4566 H       1  LIG1        0.0660
     36 H           0.6063    9.0025   -0.1621 H       1  LIG1        0.0660
     37 H          -0.9132    9.6380   -0.8728 H       1  LIG1        0.0660
     38 C          -3.4392    8.2851   -0.7136 C.ar    1  LIG1        0.0462
     39 C          -3.9246    9.4411   -0.1712 C.ar    1  LIG1        0.0619
     40 C          -4.7790   10.1456   -1.1017 C.ar    1  LIG1        0.1408
     41 C          -4.9225    9.5114   -2.2918 C.ar    1  LIG1        0.0191
     42 S          -4.0073    8.0550   -2.3418 S.2     1  LIG1       -0.0912
     43 H          -5.5282    9.8298   -3.1243 H       1  LIG1        0.0731
     44 S          -3.6403   10.0444    1.4650 S.3     1  LIG1       -0.1380
     45 H          -4.8068   10.7056    1.4771 H       1  LIG1        0.1072
     46 O          -5.3995   11.3122   -0.7654 O.3     1  LIG1       -0.4935
     47 C          -4.5966   12.4702   -1.0134 C.3     1  LIG1        0.0789
     48 H          -5.1630   13.3196   -0.6408 H       1  LIG1        0.0660
     49 H          -3.6443   12.3890   -0.4859 H       1  LIG1        0.0660
     50 H          -4.4218   12.5735   -2.0859 H       1  LIG1        0.0660
@<TRIPOS>BOND
     1    43    41    1
     2    11    10    1
     3    42    41   ar
     4    42    38   ar
     5    41    40   ar
     6    50    47    1
     7    12    10    1
     8    10    13    1
     9    10     9    1
    10    24    22    1
    11    25    22    1
    12    40    46    1
    13    40    39   ar
    14    47    46    1
    15    47    48    1
    16    47    49    1
    17    23    22    1
    18    22    21    1
    19    37    34    1
    20    38    39   ar
    21    38    29    1
    22     9     3    1
    23    30    29   ar
    24    30    26   ar
    25    39    44    1
    26    36    34    1
    27     8     7    1
    28    29    28   ar
    29    34    35    1
    30    34    33    1
    31     7     2    1
    32    21    16    1
    33     3     2   ar
    34     3     4   ar
    35    26    17    1
    36    26    27   ar
    37    16    17   ar
    38    16    15   ar
    39    28    33    1
    40    28    27   ar
    41    19    15    1
    42    19    20    1
    43    17    18   ar
    44    15    14   ar
    45     2     1   ar
    46    18    14   ar
    47    14     4    1
    48    27    31    1
    49     4     5   ar
    50    44    45    1
    51     1     5   ar
    52     1     6    1
    53    31    32    1
