@<TRIPOS>MOLECULE
mol_data/opt/m06hf/geoms/mol2/5gl5gl-5gl.out
 38 40 0 0 0
SMALL
GASTEIGER

@<TRIPOS>ATOM
      1 C          -2.1527   -2.1297    1.1312 C.ar    1  LIG1       -0.0069
      2 C          -0.8679   -2.2564    0.7115 C.ar    1  LIG1        0.0542
      3 C          -0.2607   -0.9777    0.4538 C.ar    1  LIG1        0.1484
      4 C          -1.0973    0.0750    0.6859 C.ar    1  LIG1        0.0698
      5 S          -2.6488   -0.4788    1.2188 S.2     1  LIG1       -0.0912
      6 H          -2.8357   -2.9179    1.4030 H       1  LIG1        0.0706
      7 S          -0.0277   -3.7870    0.4273 S.3     1  LIG1       -0.1386
      8 H           1.1934   -3.2740    0.6209 H       1  LIG1        0.1072
      9 O           1.0292   -0.8659    0.0355 O.3     1  LIG1       -0.4928
     10 C           1.1727   -0.5602   -1.3567 C.3     1  LIG1        0.0789
     11 H           2.2420   -0.4860   -1.5355 H       1  LIG1        0.0660
     12 H           0.7360   -1.3602   -1.9568 H       1  LIG1        0.0660
     13 H           0.6858    0.3911   -1.5787 H       1  LIG1        0.0660
     14 C          -0.7744    1.4907    0.5238 C.ar    1  LIG1        0.0468
     15 C           0.3812    2.1365    0.8633 C.ar    1  LIG1        0.0626
     16 C           0.3172    3.5390    0.5418 C.ar    1  LIG1        0.1491
     17 C          -0.8650    3.9256   -0.0157 C.ar    1  LIG1        0.0704
     18 S          -1.9341    2.5763   -0.1886 S.2     1  LIG1       -0.0822
     19 S           1.8119    1.4184    1.6082 S.3     1  LIG1       -0.1380
     20 H           2.1811    2.5807    2.1644 H       1  LIG1        0.1072
     21 O           1.3490    4.3866    0.8034 O.3     1  LIG1       -0.4928
     22 C           2.1822    4.6520   -0.3308 C.3     1  LIG1        0.0789
     23 H           2.9437    5.3464    0.0148 H       1  LIG1        0.0660
     24 H           2.6390    3.7235   -0.6771 H       1  LIG1        0.0660
     25 H           1.5881    5.1047   -1.1265 H       1  LIG1        0.0660
     26 C          -1.2177    5.2815   -0.4307 C.ar    1  LIG1        0.0462
     27 C          -0.9636    6.4522    0.2260 C.ar    1  LIG1        0.0619
     28 C          -1.4779    7.5913   -0.5004 C.ar    1  LIG1        0.1408
     29 C          -2.0994    7.2559   -1.6579 C.ar    1  LIG1        0.0191
     30 S          -2.0618    5.5572   -1.9247 S.2     1  LIG1       -0.0912
     31 H          -2.5803    7.9279   -2.3496 H       1  LIG1        0.0731
     32 S          -0.1582    6.6187    1.7900 S.3     1  LIG1       -0.1380
     33 H          -0.8654    7.7124    2.1094 H       1  LIG1        0.1072
     34 O          -1.3778    8.8619   -0.0163 O.3     1  LIG1       -0.4935
     35 C          -0.1412    9.4997   -0.3493 C.3     1  LIG1        0.0789
     36 H          -0.1654   10.4769    0.1258 H       1  LIG1        0.0660
     37 H           0.6992    8.9156    0.0302 H       1  LIG1        0.0660
     38 H          -0.0631    9.6079   -1.4323 H       1  LIG1        0.0660
@<TRIPOS>BOND
     1    31    29    1
     2    12    10    1
     3    30    29   ar
     4    30    26   ar
     5    29    28   ar
     6    13    10    1
     7    11    10    1
     8    38    35    1
     9    10     9    1
    10    25    22    1
    11    24    22    1
    12    28    34    1
    13    28    27   ar
    14    26    17    1
    15    26    27   ar
    16    35    34    1
    17    35    37    1
    18    35    36    1
    19    22    23    1
    20    22    21    1
    21    18    17   ar
    22    18    14   ar
    23    17    16   ar
    24     9     3    1
    25    27    32    1
    26     7     8    1
    27     7     2    1
    28     3     4   ar
    29     3     2   ar
    30    14     4    1
    31    14    15   ar
    32    16    21    1
    33    16    15   ar
    34     4     5   ar
    35     2     1   ar
    36    15    19    1
    37     1     5   ar
    38     1     6    1
    39    19    20    1
    40    32    33    1
