@<TRIPOS>MOLECULE
mol_data/opt/m06hf/geoms/mol2/5gl5gl5gl-.out
 38 40 0 0 0
SMALL
GASTEIGER

@<TRIPOS>ATOM
      1 C          -2.1549   -2.1260    1.1445 C.ar    1  LIG1       -0.0069
      2 C          -0.8725   -2.2549    0.7179 C.ar    1  LIG1        0.0542
      3 C          -0.2647   -0.9773    0.4564 C.ar    1  LIG1        0.1484
      4 C          -1.0985    0.0769    0.6925 C.ar    1  LIG1        0.0698
      5 S          -2.6480   -0.4743    1.2340 S.2     1  LIG1       -0.0912
      6 H          -2.8376   -2.9131    1.4203 H       1  LIG1        0.0706
      7 S          -0.0363   -3.7868    0.4299 S.3     1  LIG1       -0.1386
      8 H           1.1867   -3.2756    0.6167 H       1  LIG1        0.1072
      9 O           1.0230   -0.8676    0.0312 O.3     1  LIG1       -0.4928
     10 C           1.1595   -0.5627   -1.3619 C.3     1  LIG1        0.0789
     11 H           2.2280   -0.4902   -1.5465 H       1  LIG1        0.0660
     12 H           0.7184   -1.3623   -1.9594 H       1  LIG1        0.0660
     13 H           0.6729    0.3893   -1.5817 H       1  LIG1        0.0660
     14 C          -0.7743    1.4920    0.5280 C.ar    1  LIG1        0.0468
     15 C           0.3841    2.1362    0.8611 C.ar    1  LIG1        0.0626
     16 C           0.3205    3.5386    0.5392 C.ar    1  LIG1        0.1491
     17 C          -0.8640    3.9268   -0.0121 C.ar    1  LIG1        0.0704
     18 S          -1.9362    2.5790   -0.1787 S.2     1  LIG1       -0.0822
     19 S           1.8177    1.4163    1.5986 S.3     1  LIG1       -0.1380
     20 H           2.1916    2.5782    2.1522 H       1  LIG1        0.1072
     21 O           1.3550    4.3847    0.7949 O.3     1  LIG1       -0.4928
     22 C           2.1825    4.6483   -0.3439 C.3     1  LIG1        0.0789
     23 H           2.9469    5.3417   -0.0027 H       1  LIG1        0.0660
     24 H           2.6360    3.7190   -0.6922 H       1  LIG1        0.0660
     25 H           1.5849    5.1016   -1.1366 H       1  LIG1        0.0660
     26 C          -1.2169    5.2830   -0.4259 C.ar    1  LIG1        0.0462
     27 C          -0.9575    6.4537    0.2289 C.ar    1  LIG1        0.0619
     28 C          -1.4739    7.5932   -0.4953 C.ar    1  LIG1        0.1408
     29 C          -2.1022    7.2582   -1.6493 C.ar    1  LIG1        0.0191
     30 S          -2.0685    5.5594   -1.9154 S.2     1  LIG1       -0.0912
     31 H          -2.5857    7.9306   -2.3386 H       1  LIG1        0.0731
     32 S          -0.1434    6.6197    1.7885 S.3     1  LIG1       -0.1380
     33 H          -0.8472    7.7146    2.1112 H       1  LIG1        0.1072
     34 O          -1.3692    8.8639   -0.0123 O.3     1  LIG1       -0.4935
     35 C          -0.1335    9.4996   -0.3523 C.3     1  LIG1        0.0789
     36 H          -0.1536   10.4771    0.1225 H       1  LIG1        0.0660
     37 H           0.7081    8.9143    0.0229 H       1  LIG1        0.0660
     38 H          -0.0610    9.6072   -1.4357 H       1  LIG1        0.0660
@<TRIPOS>BOND
     1    31    29    1
     2    12    10    1
     3    30    29   ar
     4    30    26   ar
     5    29    28   ar
     6    13    10    1
     7    11    10    1
     8    38    35    1
     9    10     9    1
    10    25    22    1
    11    24    22    1
    12    28    34    1
    13    28    27   ar
    14    26    17    1
    15    26    27   ar
    16    35    34    1
    17    35    37    1
    18    35    36    1
    19    22    23    1
    20    22    21    1
    21    18    17   ar
    22    18    14   ar
    23    17    16   ar
    24     9     3    1
    25    27    32    1
    26     7     8    1
    27     7     2    1
    28     3     4   ar
    29     3     2   ar
    30    14     4    1
    31    14    15   ar
    32    16    21    1
    33    16    15   ar
    34     4     5   ar
    35     2     1   ar
    36    15    19    1
    37     1     5   ar
    38     1     6    1
    39    19    20    1
    40    32    33    1
