@<TRIPOS>MOLECULE
mol_data/opt/m06hf/geoms/mol2/5gl5gl-5gl-.out
 38 40 0 0 0
SMALL
GASTEIGER

@<TRIPOS>ATOM
      1 C          -2.1710   -2.1411    1.0456 C.ar    1  LIG1       -0.0069
      2 C          -0.8784   -2.2633    0.6492 C.ar    1  LIG1        0.0542
      3 C          -0.2671   -0.9820    0.4156 C.ar    1  LIG1        0.1484
      4 C          -1.1086    0.0682    0.6418 C.ar    1  LIG1        0.0698
      5 S          -2.6696   -0.4913    1.1396 S.2     1  LIG1       -0.0912
      6 H          -2.8587   -2.9322    1.2967 H       1  LIG1        0.0706
      7 S          -0.0321   -3.7907    0.3664 S.3     1  LIG1       -0.1386
      8 H           1.1848   -3.2792    0.5881 H       1  LIG1        0.1072
      9 O           1.0305   -0.8656    0.0231 O.3     1  LIG1       -0.4928
     10 C           1.2003   -0.5464   -1.3631 C.3     1  LIG1        0.0789
     11 H           2.2729   -0.4701   -1.5207 H       1  LIG1        0.0660
     12 H           0.7757   -1.3407   -1.9792 H       1  LIG1        0.0660
     13 H           0.7173    0.4068   -1.5851 H       1  LIG1        0.0660
     14 C          -0.7834    1.4854    0.4996 C.ar    1  LIG1        0.0468
     15 C           0.3652    2.1284    0.8673 C.ar    1  LIG1        0.0626
     16 C           0.3066    3.5339    0.5582 C.ar    1  LIG1        0.1491
     17 C          -0.8649    3.9254   -0.0181 C.ar    1  LIG1        0.0704
     18 S          -1.9298    2.5775   -0.2243 S.2     1  LIG1       -0.0822
     19 S           1.7818    1.4036    1.6325 S.3     1  LIG1       -0.1380
     20 H           2.1397    2.5606    2.2067 H       1  LIG1        0.1072
     21 O           1.3328    4.3793    0.8476 O.3     1  LIG1       -0.4928
     22 C           2.1873    4.6559   -0.2679 C.3     1  LIG1        0.0789
     23 H           2.9417    5.3472    0.0990 H       1  LIG1        0.0660
     24 H           2.6512    3.7310   -0.6143 H       1  LIG1        0.0660
     25 H           1.6083    5.1161   -1.0703 H       1  LIG1        0.0660
     26 C          -1.2103    5.2852   -0.4266 C.ar    1  LIG1        0.0462
     27 C          -0.9695    6.4496    0.2461 C.ar    1  LIG1        0.0619
     28 C          -1.4703    7.5954   -0.4790 C.ar    1  LIG1        0.1408
     29 C          -2.0696    7.2711   -1.6513 C.ar    1  LIG1        0.0191
     30 S          -2.0259    5.5750   -1.9336 S.2     1  LIG1       -0.0912
     31 H          -2.5375    7.9495   -2.3455 H       1  LIG1        0.0731
     32 S          -0.1941    6.6012    1.8268 S.3     1  LIG1       -0.1380
     33 H          -0.9078    7.6915    2.1431 H       1  LIG1        0.1072
     34 O          -1.3802    8.8614    0.0192 O.3     1  LIG1       -0.4935
     35 C          -0.1378    9.5028   -0.2839 C.3     1  LIG1        0.0789
     36 H          -0.1716   10.4753    0.2001 H       1  LIG1        0.0660
     37 H           0.6955    8.9153    0.1058 H       1  LIG1        0.0660
     38 H          -0.0391    9.6215   -1.3642 H       1  LIG1        0.0660
@<TRIPOS>BOND
     1    31    29    1
     2    12    10    1
     3    30    29   ar
     4    30    26   ar
     5    29    28   ar
     6    13    10    1
     7    11    10    1
     8    38    35    1
     9    10     9    1
    10    25    22    1
    11    24    22    1
    12    28    34    1
    13    28    27   ar
    14    26    17    1
    15    26    27   ar
    16    35    34    1
    17    35    37    1
    18    35    36    1
    19    22    23    1
    20    22    21    1
    21    18    17   ar
    22    18    14   ar
    23    17    16   ar
    24     9     3    1
    25    27    32    1
    26     7     8    1
    27     7     2    1
    28     3     4   ar
    29     3     2   ar
    30    14     4    1
    31    14    15   ar
    32    16    21    1
    33    16    15   ar
    34     4     5   ar
    35     2     1   ar
    36    15    19    1
    37     1     5   ar
    38     1     6    1
    39    19    20    1
    40    32    33    1
