@<TRIPOS>MOLECULE
mol_data/opt/m06hf/geoms/mol2/5gl5gl-5gl5gl.out
 50 53 0 0 0
SMALL
GASTEIGER

@<TRIPOS>ATOM
      1 C          -1.4263   -2.2700    1.9055 C.ar    1  LIG1       -0.0069
      2 C          -0.5214   -2.3137    0.8948 C.ar    1  LIG1        0.0542
      3 C          -0.1101   -0.9960    0.4903 C.ar    1  LIG1        0.1484
      4 C          -0.7061    0.0006    1.2057 C.ar    1  LIG1        0.0698
      5 S          -1.7920   -0.6539    2.3839 S.2     1  LIG1       -0.0912
      6 H          -1.8900   -3.1034    2.4080 H       1  LIG1        0.0706
      7 S           0.0623   -3.7801    0.0954 S.3     1  LIG1       -0.1386
      8 H           1.2328   -3.2427   -0.2658 H       1  LIG1        0.1072
      9 O           0.7932   -0.7941   -0.5075 O.3     1  LIG1       -0.4928
     10 C           0.1968   -0.4406   -1.7613 C.3     1  LIG1        0.0789
     11 H           1.0215   -0.2994   -2.4549 H       1  LIG1        0.0660
     12 H          -0.4560   -1.2466   -2.0995 H       1  LIG1        0.0660
     13 H          -0.3695    0.4860   -1.6519 H       1  LIG1        0.0660
     14 C          -0.4866    1.4335    1.0240 C.ar    1  LIG1        0.0468
     15 C           0.7001    2.0792    0.8202 C.ar    1  LIG1        0.0626
     16 C           0.5108    3.4976    0.6663 C.ar    1  LIG1        0.1491
     17 C          -0.7912    3.8935    0.7588 C.ar    1  LIG1        0.0704
     18 S          -1.8318    2.5351    1.0180 S.2     1  LIG1       -0.0822
     19 S           2.2999    1.3362    0.7184 S.3     1  LIG1       -0.1380
     20 H           2.9098    2.4221    1.2133 H       1  LIG1        0.1072
     21 O           1.5560    4.3453    0.4715 O.3     1  LIG1       -0.4928
     22 C           1.7267    4.7613   -0.8883 C.3     1  LIG1        0.0789
     23 H           2.5746    5.4411   -0.8864 H       1  LIG1        0.0660
     24 H           1.9311    3.8930   -1.5163 H       1  LIG1        0.0660
     25 H           0.8287    5.2787   -1.2311 H       1  LIG1        0.0660
     26 C          -1.2761    5.2646    0.6216 C.ar    1  LIG1        0.0468
     27 C          -0.7319    6.4037    1.1449 C.ar    1  LIG1        0.0626
     28 C          -1.4632    7.5755    0.7380 C.ar    1  LIG1        0.1491
     29 C          -2.5348    7.3097   -0.0622 C.ar    1  LIG1        0.0704
     30 S          -2.6716    5.6079   -0.3600 S.2     1  LIG1       -0.0822
     31 S           0.7008    6.5085    2.1706 S.3     1  LIG1       -0.1380
     32 H           0.2552    7.6030    2.8005 H       1  LIG1        0.1072
     33 O          -1.1029    8.8243    1.1386 O.3     1  LIG1       -0.4928
     34 C          -0.3321    9.5423    0.1679 C.3     1  LIG1        0.0789
     35 H          -0.1299   10.5149    0.6087 H       1  LIG1        0.0660
     36 H           0.5991    9.0085   -0.0301 H       1  LIG1        0.0660
     37 H          -0.9113    9.6551   -0.7501 H       1  LIG1        0.0660
     38 C          -3.4362    8.2940   -0.6558 C.ar    1  LIG1        0.0462
     39 C          -3.9323    9.4378   -0.0973 C.ar    1  LIG1        0.0619
     40 C          -4.7745   10.1593   -1.0259 C.ar    1  LIG1        0.1408
     41 C          -4.8989    9.5492   -2.2305 C.ar    1  LIG1        0.0191
     42 S          -3.9797    8.0959   -2.2966 S.2     1  LIG1       -0.0912
     43 H          -5.4930    9.8833   -3.0653 H       1  LIG1        0.0731
     44 S          -3.6734   10.0083    1.5548 S.3     1  LIG1       -0.1380
     45 H          -4.8416   10.6665    1.5632 H       1  LIG1        0.1072
     46 O          -5.4026   11.3175   -0.6751 O.3     1  LIG1       -0.4935
     47 C          -4.5989   12.4820   -0.8877 C.3     1  LIG1        0.0789
     48 H          -5.1727   13.3225   -0.5063 H       1  LIG1        0.0660
     49 H          -3.6543   12.3921   -0.3478 H       1  LIG1        0.0660
     50 H          -4.4085   12.6074   -1.9551 H       1  LIG1        0.0660
@<TRIPOS>BOND
     1    43    41    1
     2    11    10    1
     3    42    41   ar
     4    42    38   ar
     5    41    40   ar
     6    12    10    1
     7    50    47    1
     8    10    13    1
     9    10     9    1
    10    24    22    1
    11    25    22    1
    12    40    46    1
    13    40    39   ar
    14    22    23    1
    15    22    21    1
    16    47    46    1
    17    47    48    1
    18    47    49    1
    19    37    34    1
    20    38    39   ar
    21    38    29    1
    22     9     3    1
    23    30    29   ar
    24    30    26   ar
    25     8     7    1
    26    39    44    1
    27    29    28   ar
    28    36    34    1
    29     7     2    1
    30    34    35    1
    31    34    33    1
    32    21    16    1
    33     3     2   ar
    34     3     4   ar
    35    26    17    1
    36    26    27   ar
    37    16    17   ar
    38    16    15   ar
    39    19    15    1
    40    19    20    1
    41    28    33    1
    42    28    27   ar
    43    17    18   ar
    44    15    14   ar
    45     2     1   ar
    46    18    14   ar
    47    14     4    1
    48    27    31    1
    49     4     5   ar
    50    44    45    1
    51     1     5   ar
    52     1     6    1
    53    31    32    1
