@<TRIPOS>MOLECULE
mol_data/opt/m06hf/geoms/mol2/5gl5gl5gl-5gl-.out
 50 53 0 0 0
SMALL
GASTEIGER

@<TRIPOS>ATOM
      1 C          -1.8740   -2.1228    1.2446 C.ar    1  LIG1       -0.0069
      2 C          -0.8654   -2.1586    0.3365 C.ar    1  LIG1        0.0542
      3 C          -0.3091   -0.8528    0.1037 C.ar    1  LIG1        0.1484
      4 C          -0.9061    0.1285    0.8401 C.ar    1  LIG1        0.0698
      5 S          -2.1691   -0.5274    1.8272 S.2     1  LIG1       -0.0912
      6 H          -2.4553   -2.9528    1.6122 H       1  LIG1        0.0706
      7 S          -0.3252   -3.5956   -0.5434 S.3     1  LIG1       -0.1386
      8 H           0.9548   -3.2078   -0.6013 H       1  LIG1        0.1072
      9 O           0.7180   -0.6462   -0.7641 O.3     1  LIG1       -0.4928
     10 C           0.3027   -0.1439   -2.0400 C.3     1  LIG1        0.0789
     11 H           1.2131   -0.0070   -2.6172 H       1  LIG1        0.0660
     12 H          -0.3543   -0.8678   -2.5243 H       1  LIG1        0.0660
     13 H          -0.2114    0.8103   -1.9115 H       1  LIG1        0.0660
     14 C          -0.5617    1.5478    0.8227 C.ar    1  LIG1        0.0468
     15 C           0.6843    2.1092    0.7911 C.ar    1  LIG1        0.0626
     16 C           0.6146    3.5470    0.7808 C.ar    1  LIG1        0.1491
     17 C          -0.6559    4.0397    0.8118 C.ar    1  LIG1        0.0704
     18 S          -1.8137    2.7544    0.8262 S.2     1  LIG1       -0.0822
     19 S           2.2323    1.2588    0.7758 S.3     1  LIG1       -0.1380
     20 H           2.8589    2.2756    1.3807 H       1  LIG1        0.1072
     21 O           1.7322    4.3228    0.7662 O.3     1  LIG1       -0.4928
     22 C           2.0787    4.8100   -0.5359 C.3     1  LIG1        0.0789
     23 H           2.9786    5.4043   -0.4030 H       1  LIG1        0.0660
     24 H           2.2699    3.9688   -1.2043 H       1  LIG1        0.0660
     25 H           1.2684    5.4296   -0.9240 H       1  LIG1        0.0660
     26 C          -1.0253    5.4523    0.8262 C.ar    1  LIG1        0.0468
     27 C          -0.4405    6.4628    1.5350 C.ar    1  LIG1        0.0626
     28 C          -1.0824    7.7223    1.2772 C.ar    1  LIG1        0.1491
     29 C          -2.1247    7.6546    0.3972 C.ar    1  LIG1        0.0704
     30 S          -2.3328    6.0265   -0.1644 S.2     1  LIG1       -0.0822
     31 S           0.9076    6.3114    2.6670 S.3     1  LIG1       -0.1380
     32 H           0.4617    7.3185    3.4327 H       1  LIG1        0.1072
     33 O          -0.7119    8.8682    1.9149 O.3     1  LIG1       -0.4928
     34 C           0.3166    9.5945    1.2263 C.3     1  LIG1        0.0789
     35 H           0.5075   10.4833    1.8218 H       1  LIG1        0.0660
     36 H           1.2153    8.9801    1.1557 H       1  LIG1        0.0660
     37 H          -0.0348    9.8731    0.2322 H       1  LIG1        0.0660
     38 C          -2.9915    8.7697    0.0142 C.ar    1  LIG1        0.0462
     39 C          -3.8204    8.8733   -1.0655 C.ar    1  LIG1        0.0619
     40 C          -4.5571   10.1142   -1.0698 C.ar    1  LIG1        0.1408
     41 C          -4.2687   10.9081   -0.0072 C.ar    1  LIG1        0.0191
     42 S          -3.0882   10.1885    1.0261 S.2     1  LIG1       -0.0912
     43 H          -4.6663   11.8816    0.2259 H       1  LIG1        0.0731
     44 S          -3.9832    7.6930   -2.3706 S.3     1  LIG1       -0.1380
     45 H          -5.1130    8.2331   -2.8414 H       1  LIG1        0.1072
     46 O          -5.4244   10.3459   -2.0823 O.3     1  LIG1       -0.4935
     47 C          -6.1244   11.5770   -2.0307 C.3     1  LIG1        0.0789
     48 H          -6.7662   11.5994   -2.9065 H       1  LIG1        0.0660
     49 H          -6.7280   11.6293   -1.1212 H       1  LIG1        0.0660
     50 H          -5.4188   12.4108   -2.0606 H       1  LIG1        0.0660
@<TRIPOS>BOND
     1    48    47    1
     2    45    44    1
     3    11    10    1
     4    12    10    1
     5    44    39    1
     6    46    47    1
     7    46    40    1
     8    50    47    1
     9    10    13    1
    10    10     9    1
    11    47    49    1
    12    24    22    1
    13    40    39   ar
    14    40    41   ar
    15    39    38   ar
    16    25    22    1
    17     9     3    1
    18     8     7    1
    19     7     2    1
    20    22    23    1
    21    22    21    1
    22    30    29   ar
    23    30    26   ar
    24    41    43    1
    25    41    42   ar
    26    38    29    1
    27    38    42   ar
    28     3     2   ar
    29     3     4   ar
    30    37    34    1
    31     2     1   ar
    32    29    28   ar
    33    21    16    1
    34    19    15    1
    35    19    20    1
    36    16    15   ar
    37    16    17   ar
    38    15    14   ar
    39    17    26    1
    40    17    18   ar
    41    14    18   ar
    42    14     4    1
    43    26    27   ar
    44     4     5   ar
    45    36    34    1
    46    34    35    1
    47    34    33    1
    48     1     6    1
    49     1     5   ar
    50    28    27   ar
    51    28    33    1
    52    27    31    1
    53    31    32    1
