@<TRIPOS>MOLECULE
mol_data/opt/m06hf/geoms/mol2/5gl5gl.out
 26 27 0 0 0
SMALL
GASTEIGER

@<TRIPOS>ATOM
      1 C          -2.3346   -1.9852    0.4816 C.ar    1  LIG1       -0.0069
      2 C          -0.9848   -2.1094    0.5541 C.ar    1  LIG1        0.0542
      3 C          -0.3213   -0.8512    0.3367 C.ar    1  LIG1        0.1484
      4 C          -1.1807    0.1839    0.1119 C.ar    1  LIG1        0.0698
      5 S          -2.8235   -0.3646    0.1484 S.2     1  LIG1       -0.0912
      6 H          -3.0734   -2.7589    0.6119 H       1  LIG1        0.0706
      7 S          -0.0997   -3.6178    0.8206 S.3     1  LIG1       -0.1386
      8 H           1.0074   -3.0052    1.2533 H       1  LIG1        0.1072
      9 O           1.0348   -0.7375    0.3732 O.3     1  LIG1       -0.4928
     10 C           1.6457   -0.6133   -0.9167 C.3     1  LIG1        0.0789
     11 H           2.7128   -0.5212   -0.7334 H       1  LIG1        0.0660
     12 H           1.4329   -1.5024   -1.5127 H       1  LIG1        0.0660
     13 H           1.2701    0.2797   -1.4194 H       1  LIG1        0.0660
     14 C          -0.8048    1.5759   -0.1247 C.ar    1  LIG1        0.0462
     15 C           0.1664    2.2992    0.5069 C.ar    1  LIG1        0.0619
     16 C           0.2526    3.6445   -0.0154 C.ar    1  LIG1        0.1408
     17 C          -0.6438    3.8996   -1.0004 C.ar    1  LIG1        0.0191
     18 S          -1.6009    2.5126   -1.3545 S.2     1  LIG1       -0.0912
     19 H          -0.7842    4.8337   -1.5186 H       1  LIG1        0.0731
     20 S           1.1963    1.7423    1.8304 S.3     1  LIG1       -0.1380
     21 H           1.3074    2.9792    2.3352 H       1  LIG1        0.1072
     22 O           1.1349    4.5558    0.4861 O.3     1  LIG1       -0.4935
     23 C           2.4180    4.4984   -0.1425 C.3     1  LIG1        0.0789
     24 H           3.0436    5.2222    0.3739 H       1  LIG1        0.0660
     25 H           2.8404    3.4962   -0.0461 H       1  LIG1        0.0660
     26 H           2.3243    4.7633   -1.1970 H       1  LIG1        0.0660
@<TRIPOS>BOND
     1    19    17    1
     2    12    10    1
     3    13    10    1
     4    18    17   ar
     5    18    14   ar
     6    26    23    1
     7    17    16   ar
     8    10    11    1
     9    10     9    1
    10    23    25    1
    11    23    24    1
    12    23    22    1
    13    14     4    1
    14    14    15   ar
    15    16    22    1
    16    16    15   ar
    17     4     5   ar
    18     4     3   ar
    19     5     1   ar
    20     3     9    1
    21     3     2   ar
    22     1     2   ar
    23     1     6    1
    24    15    20    1
    25     2     7    1
    26     7     8    1
    27    20    21    1
