@<TRIPOS>MOLECULE
mol_data/opt/m06hf/geoms/mol2/5gl5gl-5gl-5gl-.out
 50 53 0 0 0
SMALL
GASTEIGER

@<TRIPOS>ATOM
      1 C          -1.9459   -2.1712    0.8939 C.ar    1  LIG1       -0.0069
      2 C          -0.8538   -2.1663    0.0873 C.ar    1  LIG1        0.0542
      3 C          -0.2862   -0.8504   -0.0360 C.ar    1  LIG1        0.1484
      4 C          -0.9583    0.0976    0.6790 C.ar    1  LIG1        0.0698
      5 S          -2.3067   -0.6024    1.5108 S.2     1  LIG1       -0.0912
      6 H          -2.5546   -3.0174    1.1685 H       1  LIG1        0.0706
      7 S          -0.2214   -3.5637   -0.7950 S.3     1  LIG1       -0.1386
      8 H           1.0555   -3.1705   -0.7123 H       1  LIG1        0.1072
      9 O           0.8187   -0.6049   -0.7906 O.3     1  LIG1       -0.4928
     10 C           0.5258   -0.0507   -2.0788 C.3     1  LIG1        0.0789
     11 H           1.4870    0.1136   -2.5584 H       1  LIG1        0.0660
     12 H          -0.0755   -0.7558   -2.6547 H       1  LIG1        0.0660
     13 H          -0.0056    0.8955   -1.9615 H       1  LIG1        0.0660
     14 C          -0.6233    1.5173    0.7539 C.ar    1  LIG1        0.0468
     15 C           0.6161    2.0826    0.8670 C.ar    1  LIG1        0.0626
     16 C           0.5382    3.5194    0.9095 C.ar    1  LIG1        0.1491
     17 C          -0.7325    4.0072    0.8371 C.ar    1  LIG1        0.0704
     18 S          -1.8777    2.7194    0.6856 S.2     1  LIG1       -0.0822
     19 S           2.1638    1.2376    0.9671 S.3     1  LIG1       -0.1380
     20 H           2.7219    2.2295    1.6720 H       1  LIG1        0.1072
     21 O           1.6468    4.2981    1.0358 O.3     1  LIG1       -0.4928
     22 C           2.1148    4.8404   -0.2050 C.3     1  LIG1        0.0789
     23 H           2.9929    5.4318    0.0394 H       1  LIG1        0.0660
     24 H           2.3765    4.0284   -0.8857 H       1  LIG1        0.0660
     25 H           1.3414    5.4727   -0.6445 H       1  LIG1        0.0660
     26 C          -1.1110    5.4169    0.8740 C.ar    1  LIG1        0.0468
     27 C          -0.6044    6.3985    1.6774 C.ar    1  LIG1        0.0626
     28 C          -1.2266    7.6660    1.4106 C.ar    1  LIG1        0.1491
     29 C          -2.1783    7.6323    0.4316 C.ar    1  LIG1        0.0704
     30 S          -2.3201    6.0286   -0.2143 S.2     1  LIG1       -0.0822
     31 S           0.6285    6.2037    2.9278 S.3     1  LIG1       -0.1380
     32 H           0.1038    7.1768    3.6873 H       1  LIG1        0.1072
     33 O          -0.9273    8.7853    2.1280 O.3     1  LIG1       -0.4928
     34 C           0.1581    9.5424    1.5730 C.3     1  LIG1        0.0789
     35 H           0.2846   10.4060    2.2205 H       1  LIG1        0.0660
     36 H           1.0635    8.9338    1.5644 H       1  LIG1        0.0660
     37 H          -0.0973    9.8614    0.5619 H       1  LIG1        0.0660
     38 C          -3.0114    8.7602    0.0125 C.ar    1  LIG1        0.0462
     39 C          -3.7323    8.9066   -1.1374 C.ar    1  LIG1        0.0619
     40 C          -4.4734   10.1447   -1.1619 C.ar    1  LIG1        0.1408
     41 C          -4.2947   10.8942   -0.0445 C.ar    1  LIG1        0.0191
     42 S          -3.2152   10.1352    1.0681 S.2     1  LIG1       -0.0912
     43 H          -4.7195   11.8560    0.1890 H       1  LIG1        0.0731
     44 S          -3.7597    7.7815   -2.4998 S.3     1  LIG1       -0.1380
     45 H          -4.8420    8.3380   -3.0557 H       1  LIG1        0.1072
     46 O          -5.2399   10.4163   -2.2435 O.3     1  LIG1       -0.4935
     47 C          -5.9496   11.6424   -2.2095 C.3     1  LIG1        0.0789
     48 H          -6.5035   11.6998   -3.1418 H       1  LIG1        0.0660
     49 H          -6.6389   11.6552   -1.3616 H       1  LIG1        0.0660
     50 H          -5.2498   12.4785   -2.1362 H       1  LIG1        0.0660
@<TRIPOS>BOND
     1    48    47    1
     2    45    44    1
     3    12    10    1
     4    11    10    1
     5    44    39    1
     6    46    47    1
     7    46    40    1
     8    47    50    1
     9    47    49    1
    10    10    13    1
    11    10     9    1
    12    40    39   ar
    13    40    41   ar
    14    39    38   ar
    15    24    22    1
    16     7     8    1
    17     7     2    1
    18     9     3    1
    19    25    22    1
    20    30    29   ar
    21    30    26   ar
    22    22    23    1
    23    22    21    1
    24    41    43    1
    25    41    42   ar
    26     3     2   ar
    27     3     4   ar
    28    38    29    1
    29    38    42   ar
    30     2     1   ar
    31    29    28   ar
    32    37    34    1
    33     4    14    1
    34     4     5   ar
    35    18    14   ar
    36    18    17   ar
    37    14    15   ar
    38    17    26    1
    39    17    16   ar
    40    15    16   ar
    41    15    19    1
    42    26    27   ar
    43     1     6    1
    44     1     5   ar
    45    16    21    1
    46    19    20    1
    47    28    27   ar
    48    28    33    1
    49    36    34    1
    50    34    33    1
    51    34    35    1
    52    27    31    1
    53    31    32    1
