@<TRIPOS>MOLECULE
mol_data/opt/m06hf/geoms/mol2/5gl5gl5gl.out
 38 40 0 0 0
SMALL
GASTEIGER

@<TRIPOS>ATOM
      1 C          -2.3654   -1.9205   -0.3718 C.ar    1  LIG1       -0.0069
      2 C          -1.0258   -2.1251   -0.2885 C.ar    1  LIG1        0.0542
      3 C          -0.3152   -0.9063   -0.0073 C.ar    1  LIG1        0.1484
      4 C          -1.1323    0.1796    0.1164 C.ar    1  LIG1        0.0698
      5 S          -2.7888   -0.2677   -0.1172 S.2     1  LIG1       -0.0912
      6 H          -3.1312   -2.6551   -0.5615 H       1  LIG1        0.0706
      7 S          -0.2051   -3.6662   -0.5711 S.3     1  LIG1       -0.1386
      8 H           0.8208   -3.3906    0.2427 H       1  LIG1        0.1072
      9 O           1.0383   -0.8731    0.1296 O.3     1  LIG1       -0.4928
     10 C           1.7295   -0.3962   -1.0317 C.3     1  LIG1        0.0789
     11 H           2.7849   -0.4022   -0.7726 H       1  LIG1        0.0660
     12 H           1.5364   -1.0615   -1.8745 H       1  LIG1        0.0660
     13 H           1.4022    0.6184   -1.2654 H       1  LIG1        0.0660
     14 C          -0.7066    1.5480    0.3972 C.ar    1  LIG1        0.0468
     15 C           0.2453    1.9646    1.2830 C.ar    1  LIG1        0.0626
     16 C           0.3917    3.3941    1.2613 C.ar    1  LIG1        0.1491
     17 C          -0.4402    4.0322    0.3847 C.ar    1  LIG1        0.0704
     18 S          -1.4193    2.8774   -0.4620 S.2     1  LIG1       -0.0822
     19 S           1.1875    0.9364    2.3672 S.3     1  LIG1       -0.1380
     20 H           1.2817    1.8951    3.2995 H       1  LIG1        0.1072
     21 O           1.2520    4.0496    2.0908 O.3     1  LIG1       -0.4928
     22 C           2.5790    4.1670    1.5574 C.3     1  LIG1        0.0789
     23 H           3.1570    4.7016    2.3064 H       1  LIG1        0.0660
     24 H           2.9974    3.1742    1.3877 H       1  LIG1        0.0660
     25 H           2.5501    4.7337    0.6260 H       1  LIG1        0.0660
     26 C          -0.5384    5.4793    0.1952 C.ar    1  LIG1        0.0462
     27 C          -1.1027    6.1661   -0.8412 C.ar    1  LIG1        0.0619
     28 C          -1.0355    7.5952   -0.6472 C.ar    1  LIG1        0.1408
     29 C          -0.4283    7.9476    0.5143 C.ar    1  LIG1        0.0191
     30 S           0.0895    6.5643    1.4090 S.2     1  LIG1       -0.0912
     31 H          -0.2427    8.9373    0.8965 H       1  LIG1        0.0731
     32 S          -1.8215    5.4640   -2.2956 S.3     1  LIG1       -0.1380
     33 H          -2.3134    6.6316   -2.7188 H       1  LIG1        0.1072
     34 O          -1.5630    8.4009   -1.5984 O.3     1  LIG1       -0.4935
     35 C          -1.4954    9.7934   -1.3433 C.3     1  LIG1        0.0789
     36 H          -1.9651   10.2805   -2.1927 H       1  LIG1        0.0660
     37 H          -2.0356   10.0335   -0.4247 H       1  LIG1        0.0660
     38 H          -0.4532   10.1094   -1.2583 H       1  LIG1        0.0660
@<TRIPOS>BOND
     1    33    32    1
     2    32    27    1
     3    36    35    1
     4    12    10    1
     5    34    35    1
     6    34    28    1
     7    35    38    1
     8    35    37    1
     9    13    10    1
    10    10    11    1
    11    10     9    1
    12    27    28   ar
    13    27    26   ar
    14    28    29   ar
    15     7     2    1
    16     7     8    1
    17     6     1    1
    18    18    17   ar
    19    18    14   ar
    20     1     2   ar
    21     1     5   ar
    22     2     3   ar
    23     5     4   ar
    24     3     4   ar
    25     3     9    1
    26     4    14    1
    27    26    17    1
    28    26    30   ar
    29    17    16   ar
    30    14    15   ar
    31    29    31    1
    32    29    30   ar
    33    25    22    1
    34    16    15   ar
    35    16    21    1
    36    15    19    1
    37    24    22    1
    38    22    21    1
    39    22    23    1
    40    19    20    1
