@<TRIPOS>MOLECULE
mol_data/opt/m06hf/geoms/mol2/5gl5gl-.out
 26 27 0 0 0
SMALL
GASTEIGER

@<TRIPOS>ATOM
      1 C          -2.3285   -1.9805    0.5340 C.ar    1  LIG1       -0.0069
      2 C          -0.9781   -2.1031    0.5962 C.ar    1  LIG1        0.0542
      3 C          -0.3172   -0.8474    0.3576 C.ar    1  LIG1        0.1484
      4 C          -1.1792    0.1845    0.1276 C.ar    1  LIG1        0.0698
      5 S          -2.8212   -0.3644    0.1852 S.2     1  LIG1       -0.0912
      6 H          -3.0657   -2.7529    0.6802 H       1  LIG1        0.0706
      7 S          -0.0898   -3.6077    0.8734 S.3     1  LIG1       -0.1386
      8 H           1.0208   -2.9893    1.2888 H       1  LIG1        0.1072
      9 O           1.0391   -0.7325    0.3808 O.3     1  LIG1       -0.4928
     10 C           1.6386   -0.6239   -0.9158 C.3     1  LIG1        0.0789
     11 H           2.7073   -0.5290   -0.7430 H       1  LIG1        0.0660
     12 H           1.4212   -1.5204   -1.4989 H       1  LIG1        0.0660
     13 H           1.2581    0.2627   -1.4262 H       1  LIG1        0.0660
     14 C          -0.8061    1.5737   -0.1293 C.ar    1  LIG1        0.0462
     15 C           0.1701    2.3051    0.4848 C.ar    1  LIG1        0.0619
     16 C           0.2509    3.6440   -0.0546 C.ar    1  LIG1        0.1408
     17 C          -0.6542    3.8865   -1.0348 C.ar    1  LIG1        0.0191
     18 S          -1.6135    2.4948   -1.3634 S.2     1  LIG1       -0.0912
     19 H          -0.7997    4.8141   -1.5632 H       1  LIG1        0.0731
     20 S           1.2119    1.7650    1.8060 S.3     1  LIG1       -0.1380
     21 H           1.3267    3.0080    2.2946 H       1  LIG1        0.1072
     22 O           1.1370    4.5617    0.4279 O.3     1  LIG1       -0.4935
     23 C           2.4146    4.4973   -0.2112 C.3     1  LIG1        0.0789
     24 H           3.0442    5.2277    0.2908 H       1  LIG1        0.0660
     25 H           2.8384    3.4966   -0.1063 H       1  LIG1        0.0660
     26 H           2.3115    4.7492   -1.2680 H       1  LIG1        0.0660
@<TRIPOS>BOND
     1    19    17    1
     2    12    10    1
     3    13    10    1
     4    18    17   ar
     5    18    14   ar
     6    26    23    1
     7    17    16   ar
     8    10    11    1
     9    10     9    1
    10    23    25    1
    11    23    24    1
    12    23    22    1
    13    14     4    1
    14    14    15   ar
    15    16    22    1
    16    16    15   ar
    17     4     5   ar
    18     4     3   ar
    19     5     1   ar
    20     3     9    1
    21     3     2   ar
    22    15    20    1
    23     1     2   ar
    24     1     6    1
    25     2     7    1
    26     7     8    1
    27    20    21    1
