@<TRIPOS>MOLECULE
mol_data/opt/m06hf/geoms/mol2/5ha.out
 11 11 0 0 0
SMALL
GASTEIGER

@<TRIPOS>ATOM
      1 C          -2.0762   -1.6813   -0.0419 C.ar    1  LIG1       -0.0037
      2 C          -0.7147   -1.6697   -0.0480 C.ar    1  LIG1        0.0316
      3 C          -0.1863   -0.3277   -0.0056 C.ar    1  LIG1       -0.0340
      4 C          -1.1627    0.6128    0.0245 C.ar    1  LIG1       -0.0225
      5 S          -2.7350   -0.0861    0.0221 S.2     1  LIG1       -0.1032
      6 H          -2.7255   -2.5409   -0.0655 H       1  LIG1        0.0712
      7 H          -1.0447    1.6835    0.0600 H       1  LIG1        0.0694
      8 N           0.1257   -2.7963   -0.0295 N.pl3   1  LIG1       -0.3576
      9 H          -0.3532   -3.6568   -0.2607 H       1  LIG1        0.1423
     10 H           0.9460   -2.6832   -0.6119 H       1  LIG1        0.1423
     11 H           0.8714   -0.1075    0.0126 H       1  LIG1        0.0641
@<TRIPOS>BOND
     1    10     8    1
     2     9     8    1
     3     6     1    1
     4     2     1   ar
     5     2     8    1
     6     2     3   ar
     7     1     5   ar
     8     3    11    1
     9     3     4   ar
    10     5     4   ar
    11     4     7    1
