@<TRIPOS>MOLECULE
mol_data/opt/m06hf/geoms/mol2/5ha5ha-5ha-5ha-.out
 38 41 0 0 0
SMALL
GASTEIGER

@<TRIPOS>ATOM
      1 C          -1.4510   -1.8066   -1.5164 C.ar    1  LIG1       -0.0031
      2 C          -0.8062   -1.9043   -0.3213 C.ar    1  LIG1        0.0323
      3 C          -0.5237   -0.6116    0.2482 C.ar    1  LIG1       -0.0257
      4 C          -0.9519    0.4192   -0.5382 C.ar    1  LIG1        0.0295
      5 S          -1.7121   -0.1631   -1.9814 S.2     1  LIG1       -0.0942
      6 H          -1.7943   -2.6125   -2.1444 H       1  LIG1        0.0712
      7 N          -0.5058   -3.0930    0.3630 N.pl3   1  LIG1       -0.3575
      8 H          -0.5829   -3.9218   -0.2113 H       1  LIG1        0.1423
      9 H           0.3889   -3.0661    0.8349 H       1  LIG1        0.1423
     10 H          -0.0762   -0.4649    1.2223 H       1  LIG1        0.0647
     11 C          -0.8174    1.8489   -0.2632 C.ar    1  LIG1        0.0471
     12 C           0.2820    2.4682    0.2695 C.ar    1  LIG1        0.0406
     13 C           0.0792    3.8790    0.4512 C.ar    1  LIG1       -0.0250
     14 C          -1.1557    4.2953    0.0383 C.ar    1  LIG1        0.0301
     15 S          -2.1016    2.9779   -0.5678 S.2     1  LIG1       -0.0853
     16 N           1.4602    1.8180    0.6488 N.pl3   1  LIG1       -0.3570
     17 H           1.5850    0.9291    0.1771 H       1  LIG1        0.1424
     18 H           2.2823    2.4021    0.5688 H       1  LIG1        0.1424
     19 H           0.8011    4.5387    0.9138 H       1  LIG1        0.0648
     20 C          -1.6763    5.6600    0.0693 C.ar    1  LIG1        0.0472
     21 C          -0.9591    6.8027   -0.1722 C.ar    1  LIG1        0.0406
     22 C          -1.7591    7.9876   -0.0304 C.ar    1  LIG1       -0.0250
     23 C          -3.0587    7.7154    0.2925 C.ar    1  LIG1        0.0301
     24 S          -3.3348    6.0136    0.4426 S.2     1  LIG1       -0.0853
     25 N           0.4041    6.8396   -0.4809 N.pl3   1  LIG1       -0.3570
     26 H           0.7291    5.9863   -0.9223 H       1  LIG1        0.1424
     27 H           0.6695    7.6572   -1.0144 H       1  LIG1        0.1424
     28 H          -1.3723    8.9941   -0.1212 H       1  LIG1        0.0648
     29 C          -4.1331    8.6873    0.4872 C.ar    1  LIG1        0.0465
     30 C          -4.3313    9.8264   -0.2482 C.ar    1  LIG1        0.0400
     31 C          -5.4748   10.5734    0.2070 C.ar    1  LIG1       -0.0334
     32 C          -6.1029    9.9756    1.2509 C.ar    1  LIG1       -0.0219
     33 S          -5.3342    8.5138    1.7288 S.2     1  LIG1       -0.0942
     34 H          -6.9796   10.3212    1.7743 H       1  LIG1        0.0694
     35 N          -3.5165   10.2499   -1.3035 N.pl3   1  LIG1       -0.3571
     36 H          -3.0132    9.4846   -1.7388 H       1  LIG1        0.1424
     37 H          -4.0126   10.8014   -1.9915 H       1  LIG1        0.1424
     38 H          -5.7890   11.5069   -0.2372 H       1  LIG1        0.0641
@<TRIPOS>BOND
     1     6     1    1
     2    37    35    1
     3     5     1   ar
     4     5     4   ar
     5    36    35    1
     6     1     2   ar
     7    35    30    1
     8    27    25    1
     9    26    25    1
    10    15    11   ar
    11    15    14   ar
    12     4    11    1
    13     4     3   ar
    14    25    21    1
    15     2     3   ar
    16     2     7    1
    17    11    12   ar
    18    30    31   ar
    19    30    29   ar
    20    38    31    1
    21     8     7    1
    22    21    22   ar
    23    21    20   ar
    24    28    22    1
    25    22    23   ar
    26    14    20    1
    27    14    13   ar
    28    20    24   ar
    29    17    16    1
    30    31    32   ar
    31     3    10    1
    32    12    13   ar
    33    12    16    1
    34    23    24   ar
    35    23    29    1
    36     7     9    1
    37    13    19    1
    38    29    33   ar
    39    18    16    1
    40    32    33   ar
    41    32    34    1
