@<TRIPOS>MOLECULE
mol_data/opt/m06hf/geoms/mol2/5ha5ha-5ha5ha.out
 38 41 0 0 0
SMALL
GASTEIGER

@<TRIPOS>ATOM
      1 C          -1.4605   -1.8049   -1.5166 C.ar    1  LIG1       -0.0031
      2 C          -0.8082   -1.9039   -0.3255 C.ar    1  LIG1        0.0323
      3 C          -0.5222   -0.6119    0.2436 C.ar    1  LIG1       -0.0257
      4 C          -0.9552    0.4198   -0.5390 C.ar    1  LIG1        0.0295
      5 S          -1.7246   -0.1609   -1.9780 S.2     1  LIG1       -0.0942
      6 H          -1.8076   -2.6101   -2.1432 H       1  LIG1        0.0712
      7 N          -0.5036   -3.0934    0.3555 N.pl3   1  LIG1       -0.3575
      8 H          -0.5839   -3.9216   -0.2194 H       1  LIG1        0.1423
      9 H           0.3938   -3.0669    0.8223 H       1  LIG1        0.1423
     10 H          -0.0687   -0.4663    1.2151 H       1  LIG1        0.0647
     11 C          -0.8188    1.8492   -0.2634 C.ar    1  LIG1        0.0471
     12 C           0.2841    2.4679    0.2628 C.ar    1  LIG1        0.0406
     13 C           0.0826    3.8786    0.4472 C.ar    1  LIG1       -0.0250
     14 C          -1.1550    4.2953    0.0427 C.ar    1  LIG1        0.0301
     15 S          -2.1049    2.9786   -0.5585 S.2     1  LIG1       -0.0853
     16 N           1.4647    1.8173    0.6338 N.pl3   1  LIG1       -0.3570
     17 H           1.5861    0.9286    0.1606 H       1  LIG1        0.1424
     18 H           2.2863    2.4013    0.5486 H       1  LIG1        0.1424
     19 H           0.8074    4.5376    0.9059 H       1  LIG1        0.0648
     20 C          -1.6753    5.6600    0.0784 C.ar    1  LIG1        0.0472
     21 C          -0.9595    6.8029   -0.1666 C.ar    1  LIG1        0.0406
     22 C          -1.7585    7.9877   -0.0187 C.ar    1  LIG1       -0.0250
     23 C          -3.0561    7.7153    0.3121 C.ar    1  LIG1        0.0301
     24 S          -3.3313    6.0133    0.4626 S.2     1  LIG1       -0.0853
     25 N           0.4017    6.8400   -0.4839 N.pl3   1  LIG1       -0.3570
     26 H           0.7239    5.9870   -0.9278 H       1  LIG1        0.1424
     27 H           0.6637    7.6580   -1.0187 H       1  LIG1        0.1424
     28 H          -1.3722    8.9943   -0.1109 H       1  LIG1        0.0648
     29 C          -4.1292    8.6871    0.5145 C.ar    1  LIG1        0.0465
     30 C          -4.3321    9.8267   -0.2187 C.ar    1  LIG1        0.0400
     31 C          -5.4727   10.5735    0.2444 C.ar    1  LIG1       -0.0334
     32 C          -6.0940    9.9748    1.2918 C.ar    1  LIG1       -0.0219
     33 S          -5.3222    8.5127    1.7637 S.2     1  LIG1       -0.0942
     34 H          -6.9673   10.3201    1.8211 H       1  LIG1        0.0694
     35 N          -3.5242   10.2511   -1.2790 N.pl3   1  LIG1       -0.3571
     36 H          -3.0234    9.4861   -1.7178 H       1  LIG1        0.1424
     37 H          -4.0250   10.8026   -1.9637 H       1  LIG1        0.1424
     38 H          -5.7897   11.5072   -0.1971 H       1  LIG1        0.0641
@<TRIPOS>BOND
     1     6     1    1
     2     5     1   ar
     3     5     4   ar
     4    37    35    1
     5    36    35    1
     6     1     2   ar
     7    35    30    1
     8    27    25    1
     9    26    25    1
    10    15    11   ar
    11    15    14   ar
    12     4    11    1
    13     4     3   ar
    14    25    21    1
    15     2     3   ar
    16     2     7    1
    17    11    12   ar
    18     8     7    1
    19    30    31   ar
    20    30    29   ar
    21    38    31    1
    22    21    22   ar
    23    21    20   ar
    24    28    22    1
    25    22    23   ar
    26    14    20    1
    27    14    13   ar
    28    20    24   ar
    29    17    16    1
    30     3    10    1
    31    31    32   ar
    32    12    13   ar
    33    12    16    1
    34    23    24   ar
    35    23    29    1
    36     7     9    1
    37    13    19    1
    38    29    33   ar
    39    18    16    1
    40    32    33   ar
    41    32    34    1
