@<TRIPOS>MOLECULE
mol_data/opt/m06hf/geoms/mol2/5ha5ha5ha-5ha-.out
 38 41 0 0 0
SMALL
GASTEIGER

@<TRIPOS>ATOM
      1 C          -1.4391   -1.8111   -1.5134 C.ar    1  LIG1       -0.0031
      2 C          -0.8038   -1.9051   -0.3128 C.ar    1  LIG1        0.0323
      3 C          -0.5260   -0.6106    0.2550 C.ar    1  LIG1       -0.0257
      4 C          -0.9478    0.4177   -0.5380 C.ar    1  LIG1        0.0295
      5 S          -1.6964   -0.1690   -1.9855 S.2     1  LIG1       -0.0942
      6 H          -1.7773   -2.6188   -2.1416 H       1  LIG1        0.0712
      7 N          -0.5090   -3.0917    0.3775 N.pl3   1  LIG1       -0.3575
      8 H          -0.5815   -3.9223   -0.1949 H       1  LIG1        0.1423
      9 H           0.3819   -3.0634    0.8565 H       1  LIG1        0.1423
     10 H          -0.0863   -0.4610    1.2322 H       1  LIG1        0.0647
     11 C          -0.8155    1.8483   -0.2663 C.ar    1  LIG1        0.0471
     12 C           0.2796    2.4692    0.2734 C.ar    1  LIG1        0.0406
     13 C           0.0754    3.8806    0.4490 C.ar    1  LIG1       -0.0250
     14 C          -1.1562    4.2956    0.0250 C.ar    1  LIG1        0.0301
     15 S          -2.0972    2.9763   -0.5846 S.2     1  LIG1       -0.0853
     16 N           1.4547    1.8202    0.6641 N.pl3   1  LIG1       -0.3570
     17 H           1.5833    0.9298    0.1961 H       1  LIG1        0.1424
     18 H           2.2774    2.4041    0.5890 H       1  LIG1        0.1424
     19 H           0.7935    4.5416    0.9154 H       1  LIG1        0.0648
     20 C          -1.6771    5.6603    0.0477 C.ar    1  LIG1        0.0472
     21 C          -0.9579    6.8023   -0.1916 C.ar    1  LIG1        0.0406
     22 C          -1.7590    7.9876   -0.0599 C.ar    1  LIG1       -0.0250
     23 C          -3.0611    7.7164    0.2534 C.ar    1  LIG1        0.0301
     24 S          -3.3385    6.0150    0.4066 S.2     1  LIG1       -0.0853
     25 N           0.4077    6.8383   -0.4895 N.pl3   1  LIG1       -0.3570
     26 H           0.7362    5.9836   -0.9257 H       1  LIG1        0.1424
     27 H           0.6774    7.6542   -1.0235 H       1  LIG1        0.1424
     28 H          -1.3714    8.9938   -0.1507 H       1  LIG1        0.0648
     29 C          -4.1370    8.6889    0.4366 C.ar    1  LIG1        0.0465
     30 C          -4.3294    9.8257   -0.3039 C.ar    1  LIG1        0.0400
     31 C          -5.4765   10.5741    0.1399 C.ar    1  LIG1       -0.0334
     32 C          -6.1129    9.9795    1.1805 C.ar    1  LIG1       -0.0219
     33 S          -5.3480    8.5192    1.6690 S.2     1  LIG1       -0.0942
     34 H          -6.9937   10.3267    1.6958 H       1  LIG1        0.0694
     35 N          -3.5061   10.2460   -1.3539 N.pl3   1  LIG1       -0.3571
     36 H          -2.9994    9.4793   -1.7828 H       1  LIG1        0.1424
     37 H          -3.9967   10.7954   -2.0476 H       1  LIG1        0.1424
     38 H          -5.7871   11.5062   -0.3097 H       1  LIG1        0.0641
@<TRIPOS>BOND
     1     6     1    1
     2    37    35    1
     3     5     1   ar
     4     5     4   ar
     5    36    35    1
     6     1     2   ar
     7    35    30    1
     8    27    25    1
     9    26    25    1
    10    15    11   ar
    11    15    14   ar
    12     4    11    1
    13     4     3   ar
    14    25    21    1
    15     2     3   ar
    16     2     7    1
    17    38    31    1
    18    30    31   ar
    19    30    29   ar
    20    11    12   ar
    21     8     7    1
    22    21    22   ar
    23    21    20   ar
    24    28    22    1
    25    22    23   ar
    26    14    20    1
    27    14    13   ar
    28    20    24   ar
    29    31    32   ar
    30    17    16    1
    31    23    24   ar
    32    23    29    1
    33     3    10    1
    34    12    13   ar
    35    12    16    1
    36     7     9    1
    37    29    33   ar
    38    13    19    1
    39    18    16    1
    40    32    33   ar
    41    32    34    1
