@<TRIPOS>MOLECULE
mol_data/opt/m06hf/geoms/mol2/5ha5ha-.out
 20 21 0 0 0
SMALL
GASTEIGER

@<TRIPOS>ATOM
      1 C          -1.9962   -1.7632   -0.5452 C.ar    1  LIG1       -0.0031
      2 C          -0.7601   -1.7836    0.0257 C.ar    1  LIG1        0.0323
      3 C          -0.2775   -0.4578    0.3165 C.ar    1  LIG1       -0.0257
      4 C          -1.1560    0.5192   -0.0526 C.ar    1  LIG1        0.0294
      5 S          -2.5890   -0.1537   -0.7525 S.2     1  LIG1       -0.0942
      6 H          -2.5949   -2.6085   -0.8429 H       1  LIG1        0.0712
      7 N          -0.0351   -2.9303    0.3859 N.pl3   1  LIG1       -0.3575
      8 H          -0.3598   -3.7738   -0.0673 H       1  LIG1        0.1423
      9 H           0.9642   -2.8221    0.2695 H       1  LIG1        0.1423
     10 H           0.6562   -0.2516    0.8227 H       1  LIG1        0.0647
     11 C          -0.9662    1.9650    0.0701 C.ar    1  LIG1        0.0465
     12 C           0.1872    2.6517   -0.1999 C.ar    1  LIG1        0.0400
     13 C           0.0395    4.0675    0.0185 C.ar    1  LIG1       -0.0334
     14 C          -1.2093    4.4002    0.4316 C.ar    1  LIG1       -0.0219
     15 S          -2.2332    3.0300    0.5921 S.2     1  LIG1       -0.0942
     16 H          -1.5833    5.3845    0.6624 H       1  LIG1        0.0694
     17 N           1.3899    2.0690   -0.6160 N.pl3   1  LIG1       -0.3571
     18 H           1.2518    1.1544   -1.0324 H       1  LIG1        0.1424
     19 H           1.9302    2.6706   -1.2247 H       1  LIG1        0.1424
     20 H           0.8403    4.7775   -0.1315 H       1  LIG1        0.0641
@<TRIPOS>BOND
     1    19    17    1
     2    18    17    1
     3     6     1    1
     4     5     1   ar
     5     5     4   ar
     6    17    12    1
     7     1     2   ar
     8    12    13   ar
     9    12    11   ar
    10    20    13    1
    11     8     7    1
    12     4    11    1
    13     4     3   ar
    14    13    14   ar
    15     2     3   ar
    16     2     7    1
    17    11    15   ar
    18     9     7    1
    19     3    10    1
    20    14    15   ar
    21    14    16    1
