@<TRIPOS>MOLECULE
mol_data/opt/m06hf/geoms/mol2/5ha5ha5ha5ha.out
 38 41 0 0 0
SMALL
GASTEIGER

@<TRIPOS>ATOM
      1 C          -1.4486   -1.8094   -1.5135 C.ar    1  LIG1       -0.0031
      2 C          -0.8059   -1.9048   -0.3170 C.ar    1  LIG1        0.0323
      3 C          -0.5244   -0.6109    0.2505 C.ar    1  LIG1       -0.0257
      4 C          -0.9512    0.4183   -0.5388 C.ar    1  LIG1        0.0295
      5 S          -1.7089   -0.1668   -1.9821 S.2     1  LIG1       -0.0942
      6 H          -1.7907   -2.6165   -2.1404 H       1  LIG1        0.0712
      7 N          -0.5068   -3.0921    0.3701 N.pl3   1  LIG1       -0.3575
      8 H          -0.5825   -3.9221   -0.2028 H       1  LIG1        0.1423
      9 H           0.3868   -3.0642    0.8441 H       1  LIG1        0.1423
     10 H          -0.0787   -0.4624    1.2251 H       1  LIG1        0.0647
     11 C          -0.8169    1.8486   -0.2665 C.ar    1  LIG1        0.0471
     12 C           0.2817    2.4689    0.2667 C.ar    1  LIG1        0.0406
     13 C           0.0788    3.8801    0.4451 C.ar    1  LIG1       -0.0250
     14 C          -1.1555    4.2956    0.0294 C.ar    1  LIG1        0.0301
     15 S          -2.1006    2.9770   -0.5753 S.2     1  LIG1       -0.0853
     16 N           1.4593    1.8194    0.6491 N.pl3   1  LIG1       -0.3570
     17 H           1.5845    0.9292    0.1797 H       1  LIG1        0.1424
     18 H           2.2816    2.4031    0.5687 H       1  LIG1        0.1424
     19 H           0.8000    4.5406    0.9076 H       1  LIG1        0.0648
     20 C          -1.6760    5.6604    0.0567 C.ar    1  LIG1        0.0472
     21 C          -0.9583    6.8026   -0.1861 C.ar    1  LIG1        0.0406
     22 C          -1.7584    7.9878   -0.0482 C.ar    1  LIG1       -0.0250
     23 C          -3.0586    7.7164    0.2731 C.ar    1  LIG1        0.0301
     24 S          -3.3351    6.0149    0.4266 S.2     1  LIG1       -0.0853
     25 N           0.4054    6.8387   -0.4926 N.pl3   1  LIG1       -0.3570
     26 H           0.7312    5.9842   -0.9313 H       1  LIG1        0.1424
     27 H           0.6717    7.6549   -1.0279 H       1  LIG1        0.1424
     28 H          -1.3713    8.9941   -0.1405 H       1  LIG1        0.0648
     29 C          -4.1333    8.6888    0.4639 C.ar    1  LIG1        0.0465
     30 C          -4.3303    9.8262   -0.2745 C.ar    1  LIG1        0.0400
     31 C          -5.4745   10.5743    0.1771 C.ar    1  LIG1       -0.0334
     32 C          -6.1042    9.9790    1.2214 C.ar    1  LIG1       -0.0219
     33 S          -5.3362    8.5183    1.7040 S.2     1  LIG1       -0.0942
     34 H          -6.9817   10.3258    1.7426 H       1  LIG1        0.0694
     35 N          -3.5139   10.2472   -1.3296 N.pl3   1  LIG1       -0.3571
     36 H          -3.0096    9.4809   -1.7620 H       1  LIG1        0.1424
     37 H          -4.0092   10.7966   -2.0199 H       1  LIG1        0.1424
     38 H          -5.7880   11.5067   -0.2698 H       1  LIG1        0.0641
@<TRIPOS>BOND
     1     6     1    1
     2    37    35    1
     3     5     1   ar
     4     5     4   ar
     5    36    35    1
     6     1     2   ar
     7    35    30    1
     8    27    25    1
     9    26    25    1
    10    15    11   ar
    11    15    14   ar
    12     4    11    1
    13     4     3   ar
    14    25    21    1
    15     2     3   ar
    16     2     7    1
    17    30    31   ar
    18    30    29   ar
    19    38    31    1
    20    11    12   ar
    21     8     7    1
    22    21    22   ar
    23    21    20   ar
    24    28    22    1
    25    22    23   ar
    26    14    20    1
    27    14    13   ar
    28    20    24   ar
    29    31    32   ar
    30    17    16    1
    31     3    10    1
    32    12    13   ar
    33    12    16    1
    34    23    24   ar
    35    23    29    1
    36     7     9    1
    37    13    19    1
    38    29    33   ar
    39    18    16    1
    40    32    33   ar
    41    32    34    1
