@<TRIPOS>MOLECULE
mol_data/opt/m06hf/geoms/mol2/5ha5ha-5ha5ha-.out
 38 41 0 0 0
SMALL
GASTEIGER

@<TRIPOS>ATOM
      1 C          -1.4621   -1.8076   -1.5097 C.ar    1  LIG1       -0.0031
      2 C          -0.8079   -1.9044   -0.3196 C.ar    1  LIG1        0.0323
      3 C          -0.5211   -0.6113    0.2468 C.ar    1  LIG1       -0.0257
      4 C          -0.9555    0.4189   -0.5370 C.ar    1  LIG1        0.0295
      5 S          -1.7269   -0.1644   -1.9738 S.2     1  LIG1       -0.0942
      6 H          -1.8103   -2.6139   -2.1343 H       1  LIG1        0.0712
      7 N          -0.5022   -3.0926    0.3632 N.pl3   1  LIG1       -0.3575
      8 H          -0.5837   -3.9219   -0.2099 H       1  LIG1        0.1423
      9 H           0.3962   -3.0654    0.8281 H       1  LIG1        0.1423
     10 H          -0.0660   -0.4639    1.2173 H       1  LIG1        0.0647
     11 C          -0.8190    1.8488   -0.2640 C.ar    1  LIG1        0.0471
     12 C           0.2845    2.4686    0.2598 C.ar    1  LIG1        0.0406
     13 C           0.0830    3.8795    0.4420 C.ar    1  LIG1       -0.0250
     14 C          -1.1551    4.2954    0.0385 C.ar    1  LIG1        0.0301
     15 S          -2.1056    2.9775   -0.5594 S.2     1  LIG1       -0.0853
     16 N           1.4657    1.8187    0.6304 N.pl3   1  LIG1       -0.3570
     17 H           1.5869    0.9295    0.1582 H       1  LIG1        0.1424
     18 H           2.2871    2.4029    0.5436 H       1  LIG1        0.1424
     19 H           0.8084    4.5395    0.8985 H       1  LIG1        0.0648
     20 C          -1.6756    5.6601    0.0726 C.ar    1  LIG1        0.0472
     21 C          -0.9603    6.8027   -0.1753 C.ar    1  LIG1        0.0406
     22 C          -1.7593    7.9876   -0.0281 C.ar    1  LIG1       -0.0250
     23 C          -3.0563    7.7156    0.3051 C.ar    1  LIG1        0.0301
     24 S          -3.3311    6.0138    0.4585 S.2     1  LIG1       -0.0853
     25 N           0.4004    6.8394   -0.4947 N.pl3   1  LIG1       -0.3570
     26 H           0.7220    5.9858   -0.9380 H       1  LIG1        0.1424
     27 H           0.6615    7.6567   -1.0309 H       1  LIG1        0.1424
     28 H          -1.3733    8.9940   -0.1227 H       1  LIG1        0.0648
     29 C          -4.1292    8.6875    0.5075 C.ar    1  LIG1        0.0465
     30 C          -4.3333    9.8261   -0.2271 C.ar    1  LIG1        0.0400
     31 C          -5.4733   10.5733    0.2364 C.ar    1  LIG1       -0.0334
     32 C          -6.0931    9.9762    1.2855 C.ar    1  LIG1       -0.0219
     33 S          -5.3206    8.5148    1.7585 S.2     1  LIG1       -0.0942
     34 H          -6.9658   10.3221    1.8154 H       1  LIG1        0.0694
     35 N          -3.5267   10.2489   -1.2891 N.pl3   1  LIG1       -0.3571
     36 H          -3.0268    9.4833   -1.7277 H       1  LIG1        0.1424
     37 H          -4.0282   10.7999   -1.9736 H       1  LIG1        0.1424
     38 H          -5.7910   11.5064   -0.2061 H       1  LIG1        0.0641
@<TRIPOS>BOND
     1     6     1    1
     2     5     1   ar
     3     5     4   ar
     4    37    35    1
     5    36    35    1
     6     1     2   ar
     7    35    30    1
     8    27    25    1
     9    26    25    1
    10    15    11   ar
    11    15    14   ar
    12     4    11    1
    13     4     3   ar
    14    25    21    1
    15     2     3   ar
    16     2     7    1
    17    11    12   ar
    18    30    31   ar
    19    30    29   ar
    20     8     7    1
    21    38    31    1
    22    21    22   ar
    23    21    20   ar
    24    28    22    1
    25    22    23   ar
    26    14    20    1
    27    14    13   ar
    28    20    24   ar
    29    17    16    1
    30    31    32   ar
    31     3    10    1
    32    12    13   ar
    33    12    16    1
    34    23    24   ar
    35    23    29    1
    36     7     9    1
    37    13    19    1
    38    29    33   ar
    39    18    16    1
    40    32    33   ar
    41    32    34    1
