@<TRIPOS>MOLECULE
mol_data/opt/m06hf/geoms/mol2/5ha5ha5ha.out
 29 31 0 0 0
SMALL
GASTEIGER

@<TRIPOS>ATOM
      1 C          -1.7518   -1.8118   -1.0644 C.ar    1  LIG1       -0.0031
      2 C          -0.8049   -1.8557   -0.0866 C.ar    1  LIG1        0.0323
      3 C          -0.4175   -0.5390    0.3503 C.ar    1  LIG1       -0.0257
      4 C          -1.0731    0.4562   -0.3160 C.ar    1  LIG1        0.0295
      5 S          -2.1783   -0.1916   -1.4851 S.2     1  LIG1       -0.0942
      6 H          -2.2287   -2.6459   -1.5528 H       1  LIG1        0.0712
      7 N          -0.2978   -3.0140    0.5223 N.pl3   1  LIG1       -0.3575
      8 H          -0.4966   -3.8626    0.0096 H       1  LIG1        0.1423
      9 H           0.6871   -2.9509    0.7449 H       1  LIG1        0.1423
     10 H           0.2745   -0.3503    1.1604 H       1  LIG1        0.0647
     11 C          -0.9008    1.8969   -0.1319 C.ar    1  LIG1        0.0471
     12 C           0.2916    2.5472    0.0428 C.ar    1  LIG1        0.0406
     13 C           0.1189    3.9627    0.2260 C.ar    1  LIG1       -0.0250
     14 C          -1.1888    4.3511    0.1674 C.ar    1  LIG1        0.0301
     15 S          -2.2426    3.0010   -0.1012 S.2     1  LIG1       -0.0853
     16 N           1.5431    1.9247    0.0896 N.pl3   1  LIG1       -0.3570
     17 H           1.5455    1.0197   -0.3681 H       1  LIG1        0.1424
     18 H           2.2945    2.5130   -0.2455 H       1  LIG1        0.1424
     19 H           0.9297    4.6477    0.4370 H       1  LIG1        0.0648
     20 C          -1.7055    5.7137    0.2882 C.ar    1  LIG1        0.0465
     21 C          -1.1575    6.8346   -0.2771 C.ar    1  LIG1        0.0400
     22 C          -1.9108    8.0220    0.0337 C.ar    1  LIG1       -0.0334
     23 C          -2.9951    7.7599    0.8060 C.ar    1  LIG1       -0.0219
     24 S          -3.1331    6.0928    1.1998 S.2     1  LIG1       -0.0942
     25 H          -3.7205    8.4646    1.1787 H       1  LIG1        0.0694
     26 N           0.0099    6.8567   -1.0478 N.pl3   1  LIG1       -0.3571
     27 H           0.2320    5.9490   -1.4421 H       1  LIG1        0.1424
     28 H          -0.0014    7.5729   -1.7629 H       1  LIG1        0.1424
     29 H          -1.6331    9.0075   -0.3112 H       1  LIG1        0.0641
@<TRIPOS>BOND
     1    28    26    1
     2     6     1    1
     3     5     1   ar
     4     5     4   ar
     5    27    26    1
     6     1     2   ar
     7    26    21    1
     8    17    16    1
     9     4    11    1
    10     4     3   ar
    11    29    22    1
    12    21    22   ar
    13    21    20   ar
    14    18    16    1
    15    11    15   ar
    16    11    12   ar
    17    15    14   ar
    18     2     3   ar
    19     2     7    1
    20     8     7    1
    21    22    23   ar
    22    12    16    1
    23    12    13   ar
    24    14    13   ar
    25    14    20    1
    26    13    19    1
    27    20    24   ar
    28     3    10    1
    29     7     9    1
    30    23    25    1
    31    23    24   ar
