@<TRIPOS>MOLECULE
mol_data/opt/m06hf/geoms/mol2/5ha5ha5ha-5ha.out
 38 41 0 0 0
SMALL
GASTEIGER

@<TRIPOS>ATOM
      1 C          -1.4376   -1.8085   -1.5200 C.ar    1  LIG1       -0.0031
      2 C          -0.8039   -1.9046   -0.3187 C.ar    1  LIG1        0.0323
      3 C          -0.5267   -0.6112    0.2516 C.ar    1  LIG1       -0.0257
      4 C          -0.9474    0.4186   -0.5402 C.ar    1  LIG1        0.0295
      5 S          -1.6941   -0.1656   -1.9897 S.2     1  LIG1       -0.0942
      6 H          -1.7751   -2.6153   -2.1499 H       1  LIG1        0.0712
      7 N          -0.5102   -3.0924    0.3700 N.pl3   1  LIG1       -0.3575
      8 H          -0.5820   -3.9221   -0.2038 H       1  LIG1        0.1423
      9 H           0.3801   -3.0650    0.8503 H       1  LIG1        0.1423
     10 H          -0.0883   -0.4632    1.2297 H       1  LIG1        0.0647
     11 C          -0.8153    1.8486   -0.2659 C.ar    1  LIG1        0.0471
     12 C           0.2791    2.4686    0.2763 C.ar    1  LIG1        0.0406
     13 C           0.0748    3.8797    0.4540 C.ar    1  LIG1       -0.0250
     14 C          -1.1561    4.2955    0.0290 C.ar    1  LIG1        0.0301
     15 S          -2.0964    2.9773   -0.5842 S.2     1  LIG1       -0.0853
     16 N           1.4536    1.8188    0.6676 N.pl3   1  LIG1       -0.3570
     17 H           1.5828    0.9292    0.1982 H       1  LIG1        0.1424
     18 H           2.2765    2.4027    0.5946 H       1  LIG1        0.1424
     19 H           0.7923    4.5399    0.9225 H       1  LIG1        0.0648
     20 C          -1.6769    5.6603    0.0532 C.ar    1  LIG1        0.0472
     21 C          -0.9573    6.8026   -0.1832 C.ar    1  LIG1        0.0406
     22 C          -1.7584    7.9877   -0.0506 C.ar    1  LIG1       -0.0250
     23 C          -3.0610    7.7162    0.2605 C.ar    1  LIG1        0.0301
     24 S          -3.3387    6.0145    0.4104 S.2     1  LIG1       -0.0853
     25 N           0.4088    6.8389   -0.4792 N.pl3   1  LIG1       -0.3570
     26 H           0.7378    5.9849   -0.9163 H       1  LIG1        0.1424
     27 H           0.6792    7.6557   -1.0115 H       1  LIG1        0.1424
     28 H          -1.3706    8.9941   -0.1393 H       1  LIG1        0.0648
     29 C          -4.1371    8.6884    0.4438 C.ar    1  LIG1        0.0465
     30 C          -4.3283    9.8265   -0.2951 C.ar    1  LIG1        0.0400
     31 C          -5.4759   10.5743    0.1482 C.ar    1  LIG1       -0.0334
     32 C          -6.1138    9.9780    1.1870 C.ar    1  LIG1       -0.0219
     33 S          -5.3498    8.5168    1.6742 S.2     1  LIG1       -0.0942
     34 H          -6.9954   10.3244    1.7016 H       1  LIG1        0.0694
     35 N          -3.5035   10.2484   -1.3433 N.pl3   1  LIG1       -0.3571
     36 H          -2.9963    9.4824   -1.7728 H       1  LIG1        0.1424
     37 H          -3.9931   10.7990   -2.0367 H       1  LIG1        0.1424
     38 H          -5.7859   11.5071   -0.3002 H       1  LIG1        0.0641
@<TRIPOS>BOND
     1     6     1    1
     2    37    35    1
     3     5     1   ar
     4     5     4   ar
     5    36    35    1
     6     1     2   ar
     7    35    30    1
     8    27    25    1
     9    26    25    1
    10    15    11   ar
    11    15    14   ar
    12     4    11    1
    13     4     3   ar
    14    25    21    1
    15     2     3   ar
    16     2     7    1
    17    38    31    1
    18    30    31   ar
    19    30    29   ar
    20    11    12   ar
    21     8     7    1
    22    21    22   ar
    23    21    20   ar
    24    28    22    1
    25    22    23   ar
    26    14    20    1
    27    14    13   ar
    28    20    24   ar
    29    31    32   ar
    30    17    16    1
    31     3    10    1
    32    23    24   ar
    33    23    29    1
    34    12    13   ar
    35    12    16    1
    36     7     9    1
    37    29    33   ar
    38    13    19    1
    39    18    16    1
    40    32    33   ar
    41    32    34    1
