@<TRIPOS>MOLECULE
mol_data/opt/m06hf/geoms/mol2/5ha5ha.out
 20 21 0 0 0
SMALL
GASTEIGER

@<TRIPOS>ATOM
      1 C          -1.9915   -1.7625   -0.5575 C.ar    1  LIG1       -0.0031
      2 C          -0.7618   -1.7839    0.0268 C.ar    1  LIG1        0.0323
      3 C          -0.2818   -0.4585    0.3239 C.ar    1  LIG1       -0.0257
      4 C          -1.1559    0.5191   -0.0540 C.ar    1  LIG1        0.0294
      5 S          -2.5815   -0.1527   -0.7698 S.2     1  LIG1       -0.0942
      6 H          -2.5873   -2.6074   -0.8623 H       1  LIG1        0.0712
      7 N          -0.0411   -2.9311    0.3939 N.pl3   1  LIG1       -0.3575
      8 H          -0.3612   -3.7742   -0.0635 H       1  LIG1        0.1423
      9 H           0.9594   -2.8233    0.2884 H       1  LIG1        0.1423
     10 H           0.6464   -0.2531    0.8403 H       1  LIG1        0.0647
     11 C          -0.9669    1.9647    0.0719 C.ar    1  LIG1        0.0465
     12 C           0.1896    2.6512   -0.1851 C.ar    1  LIG1        0.0400
     13 C           0.0401    4.0669    0.0329 C.ar    1  LIG1       -0.0334
     14 C          -1.2129    4.3998    0.4327 C.ar    1  LIG1       -0.0219
     15 S          -2.2390    3.0299    0.5811 S.2     1  LIG1       -0.0942
     16 H          -1.5891    5.3840    0.6602 H       1  LIG1        0.0694
     17 N           1.3966    2.0684   -0.5885 N.pl3   1  LIG1       -0.3571
     18 H           1.2626    1.1542   -1.0072 H       1  LIG1        0.1424
     19 H           1.9436    2.6703   -1.1909 H       1  LIG1        0.1424
     20 H           0.8428    4.7767   -0.1078 H       1  LIG1        0.0641
@<TRIPOS>BOND
     1    19    17    1
     2    18    17    1
     3     6     1    1
     4     5     1   ar
     5     5     4   ar
     6    17    12    1
     7     1     2   ar
     8    12    13   ar
     9    12    11   ar
    10    20    13    1
    11     8     7    1
    12     4    11    1
    13     4     3   ar
    14     2     3   ar
    15     2     7    1
    16    13    14   ar
    17    11    15   ar
    18     9     7    1
    19     3    10    1
    20    14    15   ar
    21    14    16    1
