@<TRIPOS>MOLECULE
mol_data/opt/m06hf/geoms/mol2/5ha5ha-5ha.out
 29 31 0 0 0
SMALL
GASTEIGER

@<TRIPOS>ATOM
      1 C          -1.7613   -1.8088   -1.0627 C.ar    1  LIG1       -0.0031
      2 C          -0.8053   -1.8555   -0.0938 C.ar    1  LIG1        0.0323
      3 C          -0.4139   -0.5400    0.3432 C.ar    1  LIG1       -0.0257
      4 C          -1.0757    0.4570   -0.3142 C.ar    1  LIG1        0.0295
      5 S          -2.1917   -0.1875   -1.4748 S.2     1  LIG1       -0.0942
      6 H          -2.2427   -2.6416   -1.5489 H       1  LIG1        0.0712
      7 N          -0.2925   -3.0155    0.5070 N.pl3   1  LIG1       -0.3575
      8 H          -0.4960   -3.8626   -0.0062 H       1  LIG1        0.1423
      9 H           0.6945   -2.9529    0.7206 H       1  LIG1        0.1423
     10 H           0.2857   -0.3536    1.1473 H       1  LIG1        0.0647
     11 C          -0.9017    1.8972   -0.1276 C.ar    1  LIG1        0.0471
     12 C           0.2923    2.5471    0.0379 C.ar    1  LIG1        0.0406
     13 C           0.1213    3.9621    0.2267 C.ar    1  LIG1       -0.0250
     14 C          -1.1869    4.3505    0.1814 C.ar    1  LIG1        0.0301
     15 S          -2.2431    3.0012   -0.0812 S.2     1  LIG1       -0.0853
     16 N           1.5442    1.9245    0.0712 N.pl3   1  LIG1       -0.3570
     17 H           1.5423    1.0208   -0.3890 H       1  LIG1        0.1424
     18 H           2.2924    2.5138   -0.2692 H       1  LIG1        0.1424
     19 H           0.9340    4.6464    0.4320 H       1  LIG1        0.0648
     20 C          -1.7024    5.7128    0.3108 C.ar    1  LIG1        0.0465
     21 C          -1.1598    6.8353   -0.2563 C.ar    1  LIG1        0.0400
     22 C          -1.9102    8.0218    0.0648 C.ar    1  LIG1       -0.0334
     23 C          -2.9872    7.7575    0.8464 C.ar    1  LIG1       -0.0219
     24 S          -3.1215    6.0892    1.2368 S.2     1  LIG1       -0.0942
     25 H          -3.7092    8.4610    1.2279 H       1  LIG1        0.0694
     26 N           0.0004    6.8597   -1.0379 N.pl3   1  LIG1       -0.3571
     27 H           0.2188    5.9531   -1.4368 H       1  LIG1        0.1424
     28 H          -0.0176    7.5779   -1.7508 H       1  LIG1        0.1424
     29 H          -1.6357    9.0083   -0.2799 H       1  LIG1        0.0641
@<TRIPOS>BOND
     1    28    26    1
     2     6     1    1
     3     5     1   ar
     4     5     4   ar
     5    27    26    1
     6     1     2   ar
     7    26    21    1
     8    17    16    1
     9     4    11    1
    10     4     3   ar
    11    29    22    1
    12    18    16    1
    13    21    22   ar
    14    21    20   ar
    15    11    15   ar
    16    11    12   ar
    17     2     3   ar
    18     2     7    1
    19    15    14   ar
    20     8     7    1
    21    12    16    1
    22    12    13   ar
    23    22    23   ar
    24    14    13   ar
    25    14    20    1
    26    13    19    1
    27    20    24   ar
    28     3    10    1
    29     7     9    1
    30    23    25    1
    31    23    24   ar
