@<TRIPOS>MOLECULE
mol_data/opt/m06hf/geoms/mol2/5ha5ha5ha-.out
 29 31 0 0 0
SMALL
GASTEIGER

@<TRIPOS>ATOM
      1 C          -1.7472   -1.8096   -1.0743 C.ar    1  LIG1       -0.0031
      2 C          -0.8053   -1.8557   -0.0916 C.ar    1  LIG1        0.0323
      3 C          -0.4199   -0.5399    0.3499 C.ar    1  LIG1       -0.0257
      4 C          -1.0720    0.4567   -0.3178 C.ar    1  LIG1        0.0295
      5 S          -2.1713   -0.1885   -1.4938 S.2     1  LIG1       -0.0942
      6 H          -2.2217   -2.6426   -1.5668 H       1  LIG1        0.0712
      7 N          -0.3016   -3.0153    0.5175 N.pl3   1  LIG1       -0.3575
      8 H          -0.4978   -3.8628    0.0021 H       1  LIG1        0.1423
      9 H           0.6822   -2.9528    0.7452 H       1  LIG1        0.1423
     10 H           0.2680   -0.3530    1.1638 H       1  LIG1        0.0647
     11 C          -0.9003    1.8970   -0.1298 C.ar    1  LIG1        0.0471
     12 C           0.2913    2.5468    0.0523 C.ar    1  LIG1        0.0406
     13 C           0.1179    3.9619    0.2375 C.ar    1  LIG1       -0.0250
     14 C          -1.1894    4.3506    0.1730 C.ar    1  LIG1        0.0301
     15 S          -2.2421    3.0013   -0.1037 S.2     1  LIG1       -0.0853
     16 N           1.5424    1.9240    0.1043 N.pl3   1  LIG1       -0.3570
     17 H           1.5470    1.0198   -0.3553 H       1  LIG1        0.1424
     18 H           2.2956    2.5128   -0.2258 H       1  LIG1        0.1424
     19 H           0.9277    4.6463    0.4540 H       1  LIG1        0.0648
     20 C          -1.7064    5.7131    0.2939 C.ar    1  LIG1        0.0465
     21 C          -1.1554    6.8351   -0.2663 C.ar    1  LIG1        0.0400
     22 C          -1.9101    8.0219    0.0431 C.ar    1  LIG1       -0.0334
     23 C          -2.9983    7.7585    0.8093 C.ar    1  LIG1       -0.0219
     24 S          -3.1387    6.0906    1.1990 S.2     1  LIG1       -0.0942
     25 H          -3.7256    8.4625    1.1797 H       1  LIG1        0.0694
     26 N           0.0160    6.8585   -1.0310 N.pl3   1  LIG1       -0.3571
     27 H           0.2398    5.9516   -1.4260 H       1  LIG1        0.1424
     28 H           0.0084    7.5762   -1.7447 H       1  LIG1        0.1424
     29 H          -1.6304    9.0081   -0.2984 H       1  LIG1        0.0641
@<TRIPOS>BOND
     1    28    26    1
     2     6     1    1
     3     5     1   ar
     4     5     4   ar
     5    27    26    1
     6     1     2   ar
     7    26    21    1
     8    17    16    1
     9     4    11    1
    10     4     3   ar
    11    29    22    1
    12    21    22   ar
    13    21    20   ar
    14    18    16    1
    15    11    15   ar
    16    11    12   ar
    17    15    14   ar
    18     2     3   ar
    19     2     7    1
    20     8     7    1
    21    22    23   ar
    22    12    16    1
    23    12    13   ar
    24    14    13   ar
    25    14    20    1
    26    13    19    1
    27    20    24   ar
    28     3    10    1
    29     7     9    1
    30    23    25    1
    31    23    24   ar
