@<TRIPOS>MOLECULE
mol_data/opt/m06hf/geoms/mol2/5ha5ha5ha5ha-.out
 38 41 0 0 0
SMALL
GASTEIGER

@<TRIPOS>ATOM
      1 C          -1.4502   -1.8119   -1.5068 C.ar    1  LIG1       -0.0031
      2 C          -0.8057   -1.9052   -0.3111 C.ar    1  LIG1        0.0323
      3 C          -0.5236   -0.6104    0.2538 C.ar    1  LIG1       -0.0257
      4 C          -0.9516    0.4175   -0.5366 C.ar    1  LIG1        0.0295
      5 S          -1.7114   -0.1701   -1.9778 S.2     1  LIG1       -0.0942
      6 H          -1.7931   -2.6201   -2.1319 H       1  LIG1        0.0712
      7 N          -0.5055   -3.0914    0.3776 N.pl3   1  LIG1       -0.3575
      8 H          -0.5819   -3.9223   -0.1939 H       1  LIG1        0.1423
      9 H           0.3888   -3.0626    0.8502 H       1  LIG1        0.1423
     10 H          -0.0765   -0.4601    1.2275 H       1  LIG1        0.0647
     11 C          -0.8172    1.8482   -0.2668 C.ar    1  LIG1        0.0471
     12 C           0.2822    2.4695    0.2637 C.ar    1  LIG1        0.0406
     13 C           0.0793    3.8810    0.4400 C.ar    1  LIG1       -0.0250
     14 C          -1.1555    4.2957    0.0254 C.ar    1  LIG1        0.0301
     15 S          -2.1014    2.9760   -0.5757 S.2     1  LIG1       -0.0853
     16 N           1.4605    1.8208    0.6454 N.pl3   1  LIG1       -0.3570
     17 H           1.5850    0.9299    0.1773 H       1  LIG1        0.1424
     18 H           2.2826    2.4045    0.5629 H       1  LIG1        0.1424
     19 H           0.8011    4.5424    0.9003 H       1  LIG1        0.0648
     20 C          -1.6762    5.6605    0.0512 C.ar    1  LIG1        0.0472
     21 C          -0.9589    6.8023   -0.1946 C.ar    1  LIG1        0.0406
     22 C          -1.7591    7.9877   -0.0575 C.ar    1  LIG1       -0.0250
     23 C          -3.0587    7.7167    0.2661 C.ar    1  LIG1        0.0301
     24 S          -3.3348    6.0154    0.4229 S.2     1  LIG1       -0.0853
     25 N           0.4043    6.8381   -0.5031 N.pl3   1  LIG1       -0.3570
     26 H           0.7295    5.9829   -0.9408 H       1  LIG1        0.1424
     27 H           0.6696    7.6535   -1.0402 H       1  LIG1        0.1424
     28 H          -1.3722    8.9939   -0.1521 H       1  LIG1        0.0648
     29 C          -4.1332    8.6893    0.4568 C.ar    1  LIG1        0.0465
     30 C          -4.3315    9.8254   -0.2831 C.ar    1  LIG1        0.0400
     31 C          -5.4751   10.5742    0.1689 C.ar    1  LIG1       -0.0334
     32 C          -6.1032    9.9805    1.2151 C.ar    1  LIG1       -0.0219
     33 S          -5.3344    8.5207    1.6990 S.2     1  LIG1       -0.0942
     34 H          -6.9800   10.3281    1.7370 H       1  LIG1        0.0694
     35 N          -3.5167   10.2448   -1.3401 N.pl3   1  LIG1       -0.3571
     36 H          -3.0130    9.4778   -1.7720 H       1  LIG1        0.1424
     37 H          -4.0130   10.7930   -2.0307 H       1  LIG1        0.1424
     38 H          -5.7894   11.5058   -0.2791 H       1  LIG1        0.0641
@<TRIPOS>BOND
     1     6     1    1
     2    37    35    1
     3     5     1   ar
     4     5     4   ar
     5    36    35    1
     6     1     2   ar
     7    35    30    1
     8    27    25    1
     9    26    25    1
    10    15    11   ar
    11    15    14   ar
    12     4    11    1
    13     4     3   ar
    14    25    21    1
    15     2     3   ar
    16     2     7    1
    17    30    31   ar
    18    30    29   ar
    19    38    31    1
    20    11    12   ar
    21    21    22   ar
    22    21    20   ar
    23     8     7    1
    24    28    22    1
    25    22    23   ar
    26    14    20    1
    27    14    13   ar
    28    20    24   ar
    29    31    32   ar
    30    17    16    1
    31     3    10    1
    32    12    13   ar
    33    12    16    1
    34    23    24   ar
    35    23    29    1
    36     7     9    1
    37    13    19    1
    38    29    33   ar
    39    18    16    1
    40    32    33   ar
    41    32    34    1
