@<TRIPOS>MOLECULE
mol_data/opt/m06hf/geoms/mol2/5ha5ha-5ha-5ha.out
 38 41 0 0 0
SMALL
GASTEIGER

@<TRIPOS>ATOM
      1 C          -1.4496   -1.8041   -1.5230 C.ar    1  LIG1       -0.0031
      2 C          -0.8063   -1.9038   -0.3272 C.ar    1  LIG1        0.0323
      3 C          -0.5245   -0.6121    0.2449 C.ar    1  LIG1       -0.0257
      4 C          -0.9515    0.4200   -0.5404 C.ar    1  LIG1        0.0295
      5 S          -1.7098   -0.1597   -1.9856 S.2     1  LIG1       -0.0942
      6 H          -1.7922   -2.6088   -2.1527 H       1  LIG1        0.0712
      7 N          -0.5071   -3.0937    0.3555 N.pl3   1  LIG1       -0.3575
      8 H          -0.5835   -3.9216   -0.2202 H       1  LIG1        0.1423
      9 H           0.3870   -3.0677    0.8288 H       1  LIG1        0.1423
     10 H          -0.0783   -0.4671    1.2198 H       1  LIG1        0.0647
     11 C          -0.8172    1.8493   -0.2628 C.ar    1  LIG1        0.0471
     12 C           0.2816    2.4676    0.2724 C.ar    1  LIG1        0.0406
     13 C           0.0787    3.8781    0.4561 C.ar    1  LIG1       -0.0250
     14 C          -1.1556    4.2952    0.0423 C.ar    1  LIG1        0.0301
     15 S          -2.1008    2.9789   -0.5673 S.2     1  LIG1       -0.0853
     16 N           1.4592    1.8166    0.6523 N.pl3   1  LIG1       -0.3570
     17 H           1.5845    0.9284    0.1792 H       1  LIG1        0.1424
     18 H           2.2814    2.4008    0.5745 H       1  LIG1        0.1424
     19 H           0.8000    4.5369    0.9209 H       1  LIG1        0.0648
     20 C          -1.6761    5.6599    0.0748 C.ar    1  LIG1        0.0472
     21 C          -0.9584    6.8029   -0.1638 C.ar    1  LIG1        0.0406
     22 C          -1.7585    7.9877   -0.0211 C.ar    1  LIG1       -0.0250
     23 C          -3.0585    7.7151    0.2995 C.ar    1  LIG1        0.0301
     24 S          -3.3351    6.0131    0.4464 S.2     1  LIG1       -0.0853
     25 N           0.4052    6.8402   -0.4705 N.pl3   1  LIG1       -0.3570
     26 H           0.7307    5.9875   -0.9129 H       1  LIG1        0.1424
     27 H           0.6714    7.6586   -1.0024 H       1  LIG1        0.1424
     28 H          -1.3714    8.9943   -0.1098 H       1  LIG1        0.0648
     29 C          -4.1331    8.6868    0.4944 C.ar    1  LIG1        0.0465
     30 C          -4.3302    9.8272   -0.2394 C.ar    1  LIG1        0.0400
     31 C          -5.4742   10.5736    0.2154 C.ar    1  LIG1       -0.0334
     32 C          -6.1038    9.9741    1.2574 C.ar    1  LIG1       -0.0219
     33 S          -5.3359    8.5114    1.7339 S.2     1  LIG1       -0.0942
     34 H          -6.9812   10.3189    1.7801 H       1  LIG1        0.0694
     35 N          -3.5138   10.2523   -1.2929 N.pl3   1  LIG1       -0.3571
     36 H          -3.0100    9.4876   -1.7287 H       1  LIG1        0.1424
     37 H          -4.0089   10.8050   -1.9807 H       1  LIG1        0.1424
     38 H          -5.7877   11.5078   -0.2277 H       1  LIG1        0.0641
@<TRIPOS>BOND
     1     6     1    1
     2     5     1   ar
     3     5     4   ar
     4    37    35    1
     5    36    35    1
     6     1     2   ar
     7    35    30    1
     8    27    25    1
     9    26    25    1
    10    15    11   ar
    11    15    14   ar
    12     4    11    1
    13     4     3   ar
    14    25    21    1
    15     2     3   ar
    16     2     7    1
    17    11    12   ar
    18    30    31   ar
    19    30    29   ar
    20    38    31    1
    21     8     7    1
    22    21    22   ar
    23    21    20   ar
    24    28    22    1
    25    22    23   ar
    26    14    20    1
    27    14    13   ar
    28    20    24   ar
    29    17    16    1
    30    31    32   ar
    31     3    10    1
    32    12    13   ar
    33    12    16    1
    34    23    24   ar
    35    23    29    1
    36     7     9    1
    37    13    19    1
    38    29    33   ar
    39    18    16    1
    40    32    33   ar
    41    32    34    1
