@<TRIPOS>MOLECULE
mol_data/opt/m06hf/geoms/mol2/5ha5ha-5ha-.out
 29 31 0 0 0
SMALL
GASTEIGER

@<TRIPOS>ATOM
      1 C          -1.7567   -1.8066   -1.0726 C.ar    1  LIG1       -0.0031
      2 C          -0.8058   -1.8555   -0.0989 C.ar    1  LIG1        0.0323
      3 C          -0.4163   -0.5410    0.3428 C.ar    1  LIG1       -0.0257
      4 C          -1.0746    0.4575   -0.3160 C.ar    1  LIG1        0.0295
      5 S          -2.1848   -0.1844   -1.4836 S.2     1  LIG1       -0.0942
      6 H          -2.2358   -2.6383   -1.5630 H       1  LIG1        0.0712
      7 N          -0.2964   -3.0168    0.5022 N.pl3   1  LIG1       -0.3575
      8 H          -0.4974   -3.8628   -0.0137 H       1  LIG1        0.1423
      9 H           0.6895   -2.9549    0.7210 H       1  LIG1        0.1423
     10 H           0.2791   -0.3563    1.1508 H       1  LIG1        0.0647
     11 C          -0.9012    1.8973   -0.1255 C.ar    1  LIG1        0.0471
     12 C           0.2920    2.5466    0.0474 C.ar    1  LIG1        0.0406
     13 C           0.1203    3.9612    0.2382 C.ar    1  LIG1       -0.0250
     14 C          -1.1875    4.3501    0.1870 C.ar    1  LIG1        0.0301
     15 S          -2.2427    3.0015   -0.0838 S.2     1  LIG1       -0.0853
     16 N           1.5436    1.9237    0.0859 N.pl3   1  LIG1       -0.3570
     17 H           1.5439    1.0209   -0.3762 H       1  LIG1        0.1424
     18 H           2.2937    2.5135   -0.2494 H       1  LIG1        0.1424
     19 H           0.9321    4.6450    0.4491 H       1  LIG1        0.0648
     20 C          -1.7034    5.7121    0.3165 C.ar    1  LIG1        0.0465
     21 C          -1.1576    6.8357   -0.2455 C.ar    1  LIG1        0.0400
     22 C          -1.9094    8.0217    0.0741 C.ar    1  LIG1       -0.0334
     23 C          -2.9905    7.7560    0.8497 C.ar    1  LIG1       -0.0219
     24 S          -3.1272    6.0870    1.2359 S.2     1  LIG1       -0.0942
     25 H          -3.7143    8.4590    1.2289 H       1  LIG1        0.0694
     26 N           0.0066    6.8614   -1.0210 N.pl3   1  LIG1       -0.3571
     27 H           0.2268    5.9556   -1.4207 H       1  LIG1        0.1424
     28 H          -0.0076    7.5811   -1.7326 H       1  LIG1        0.1424
     29 H          -1.6329    9.0088   -0.2671 H       1  LIG1        0.0641
@<TRIPOS>BOND
     1    28    26    1
     2     6     1    1
     3     5     1   ar
     4     5     4   ar
     5    27    26    1
     6     1     2   ar
     7    26    21    1
     8    17    16    1
     9     4    11    1
    10     4     3   ar
    11    29    22    1
    12    18    16    1
    13    21    22   ar
    14    21    20   ar
    15    11    15   ar
    16    11    12   ar
    17     2     3   ar
    18     2     7    1
    19    15    14   ar
    20     8     7    1
    21    12    16    1
    22    12    13   ar
    23    22    23   ar
    24    14    13   ar
    25    14    20    1
    26    13    19    1
    27    20    24   ar
    28     3    10    1
    29     7     9    1
    30    23    25    1
    31    23    24   ar
