@<TRIPOS>MOLECULE
mol_data/opt/m06hf/geoms/mol2/5hd.out
 12 12 0 0 0
SMALL
GASTEIGER

@<TRIPOS>ATOM
      1 C          -2.1310   -1.6913   -0.0376 C.ar    1  LIG1       -0.0024
      2 C          -0.7679   -1.6946   -0.0514 C.ar    1  LIG1        0.0492
      3 C          -0.2526   -0.3443   -0.0089 C.ar    1  LIG1        0.0793
      4 C          -1.2275    0.6089    0.0377 C.ar    1  LIG1       -0.0051
      5 S          -2.7802   -0.0955    0.0338 S.2     1  LIG1       -0.1019
      6 H          -2.7863   -2.5462   -0.0489 H       1  LIG1        0.0712
      7 H          -1.0891    1.6772    0.0702 H       1  LIG1        0.0707
      8 N           0.0716   -2.8012   -0.0414 N.pl3   1  LIG1       -0.3566
      9 H          -0.3315   -3.6495   -0.4114 H       1  LIG1        0.1424
     10 H           1.0050   -2.6266   -0.3895 H       1  LIG1        0.1424
     11 N           2.2953    0.0950   -0.0654 N.1     1  LIG1       -0.1908
     12 C           1.1591   -0.0688   -0.0325 C.1     1  LIG1        0.1015
@<TRIPOS>BOND
     1     9     8    1
     2    10     8    1
     3    11    12    3
     4     2     8    1
     5     2     1   ar
     6     2     3   ar
     7     6     1    1
     8     1     5   ar
     9    12     3    1
    10     3     4   ar
    11     5     4   ar
    12     4     7    1
