@<TRIPOS>MOLECULE
mol_data/opt/m06hf/geoms/mol2/5hd5hd-.out
 22 23 0 0 0
SMALL
GASTEIGER

@<TRIPOS>ATOM
      1 C          -2.1046   -1.7474   -0.5949 C.ar    1  LIG1       -0.0018
      2 C          -0.8243   -1.8571   -0.1437 C.ar    1  LIG1        0.0499
      3 C          -0.2788   -0.5578    0.1721 C.ar    1  LIG1        0.0876
      4 C          -1.1405    0.4855   -0.0605 C.ar    1  LIG1        0.0469
      5 S          -2.6369   -0.1074   -0.6648 S.2     1  LIG1       -0.0929
      6 H          -2.7681   -2.5471   -0.8780 H       1  LIG1        0.0712
      7 N          -0.1097   -3.0246    0.0879 N.pl3   1  LIG1       -0.3565
      8 H          -0.4406   -3.8373   -0.4112 H       1  LIG1        0.1424
      9 H           0.8960   -2.9247    0.0512 H       1  LIG1        0.1424
     10 N           2.1235   -0.2706    1.0775 N.1     1  LIG1       -0.1908
     11 C           1.0438   -0.3935    0.7017 C.1     1  LIG1        0.1022
     12 C          -0.9107    1.9152    0.1291 C.ar    1  LIG1        0.0491
     13 C           0.1712    2.6663   -0.2688 C.ar    1  LIG1        0.0577
     14 C          -0.0451    4.0648    0.0388 C.ar    1  LIG1        0.0800
     15 C          -1.2438    4.3206    0.6328 C.ar    1  LIG1       -0.0045
     16 S          -2.1475    2.8948    0.8637 S.2     1  LIG1       -0.0929
     17 H          -1.6130    5.2805    0.9562 H       1  LIG1        0.0707
     18 N           1.2895    2.2470   -0.9472 N.pl3   1  LIG1       -0.3561
     19 H           1.6447    1.3255   -0.7385 H       1  LIG1        0.1424
     20 H           2.0145    2.9434   -1.0534 H       1  LIG1        0.1424
     21 N           1.7614    5.8197   -0.5465 N.1     1  LIG1       -0.1908
     22 C           0.9403    5.0644   -0.2746 C.1     1  LIG1        0.1016
@<TRIPOS>BOND
     1    20    18    1
     2    18    19    1
     3    18    13    1
     4     6     1    1
     5     5     1   ar
     6     5     4   ar
     7     1     2   ar
     8    21    22    3
     9     8     7    1
    10    22    14    1
    11    13    14   ar
    12    13    12   ar
    13     2     7    1
    14     2     3   ar
    15     4    12    1
    16     4     3   ar
    17    14    15   ar
    18     9     7    1
    19    12    16   ar
    20     3    11    1
    21    15    16   ar
    22    15    17    1
    23    11    10    3
