@<TRIPOS>MOLECULE
mol_data/opt/m06hf/geoms/mol2/5hd5hd-5hd5hd-.out
 42 45 0 0 0
SMALL
GASTEIGER

@<TRIPOS>ATOM
      1 C          -1.6019   -1.5739    1.7380 C.ar    1  LIG1       -0.0018
      2 C          -0.9323   -1.8501    0.5843 C.ar    1  LIG1        0.0499
      3 C          -0.5265   -0.6327   -0.0779 C.ar    1  LIG1        0.0876
      4 C          -0.8747    0.5144    0.5930 C.ar    1  LIG1        0.0469
      5 S          -1.7025    0.1197    2.0482 S.2     1  LIG1       -0.0929
      6 H          -2.0279   -2.2794    2.4314 H       1  LIG1        0.0712
      7 N          -0.6066   -3.1010    0.0786 N.pl3   1  LIG1       -0.3565
      8 H          -1.1755   -3.8624    0.4189 H       1  LIG1        0.1424
      9 H          -0.4663   -3.1347   -0.9228 H       1  LIG1        0.1424
     10 N           0.6898   -0.6913   -2.3563 N.1     1  LIG1       -0.1908
     11 C           0.1351   -0.6491   -1.3504 C.1     1  LIG1        0.1022
     12 C          -0.6251    1.9007    0.2127 C.ar    1  LIG1        0.0497
     13 C           0.5439    2.4598   -0.2466 C.ar    1  LIG1        0.0583
     14 C           0.3764    3.8792   -0.4673 C.ar    1  LIG1        0.0883
     15 C          -0.8667    4.3646   -0.1466 C.ar    1  LIG1        0.0475
     16 S          -1.8808    3.0944    0.4141 S.2     1  LIG1       -0.0839
     17 N           1.7588    1.8530   -0.4247 N.pl3   1  LIG1       -0.3561
     18 H           1.7727    0.8577   -0.5847 H       1  LIG1        0.1424
     19 H           2.4410    2.3669   -0.9639 H       1  LIG1        0.1424
     20 N           2.3100    5.3115   -1.4060 N.1     1  LIG1       -0.1908
     21 C           1.4337    4.6826   -1.0076 C.1     1  LIG1        0.1022
     22 C          -1.3564    5.7347   -0.2334 C.ar    1  LIG1        0.0497
     23 C          -0.7367    6.8875    0.1915 C.ar    1  LIG1        0.0583
     24 C          -1.5983    8.0307   -0.0161 C.ar    1  LIG1        0.0883
     25 C          -2.8284    7.7316   -0.5448 C.ar    1  LIG1        0.0475
     26 S          -2.9665    6.0418   -0.8260 S.2     1  LIG1       -0.0839
     27 N           0.4790    7.0207    0.8044 N.pl3   1  LIG1       -0.3561
     28 H           1.1886    6.3297    0.6176 H       1  LIG1        0.1424
     29 H           0.8324    7.9626    0.8975 H       1  LIG1        0.1424
     30 N          -0.7892   10.4129    0.5660 N.1     1  LIG1       -0.1908
     31 C          -1.1575    9.3613    0.2829 C.1     1  LIG1        0.1022
     32 C          -3.9263    8.6381   -0.8572 C.ar    1  LIG1        0.0491
     33 C          -4.4479    9.6428   -0.0722 C.ar    1  LIG1        0.0577
     34 C          -5.6069   10.2308   -0.7127 C.ar    1  LIG1        0.0800
     35 C          -5.9188    9.6689   -1.9128 C.ar    1  LIG1       -0.0045
     36 S          -4.8294    8.4281   -2.3333 S.2     1  LIG1       -0.0929
     37 H          -6.7282    9.9507   -2.5671 H       1  LIG1        0.0707
     38 N          -4.0565   10.0322    1.1798 N.pl3   1  LIG1       -0.3561
     39 H          -3.0828    9.9500    1.4284 H       1  LIG1        0.1424
     40 H          -4.5089   10.8586    1.5455 H       1  LIG1        0.1424
     41 N          -6.8731   12.1619    0.4482 N.1     1  LIG1       -0.1908
     42 C          -6.3347   11.3067   -0.0968 C.1     1  LIG1        0.1016
@<TRIPOS>BOND
     1    37    35    1
     2    10    11    3
     3    36    35   ar
     4    36    32   ar
     5    35    34   ar
     6    20    21    3
     7    11     3    1
     8    21    14    1
     9    19    17    1
    10     9     7    1
    11    32    25    1
    12    32    33   ar
    13    26    25   ar
    14    26    22   ar
    15    34    42    1
    16    34    33   ar
    17    18    17    1
    18    25    24   ar
    19    14    13   ar
    20    14    15   ar
    21    17    13    1
    22    13    12   ar
    23    22    15    1
    24    22    23   ar
    25    15    16   ar
    26    42    41    3
    27     3     2   ar
    28     3     4   ar
    29    33    38    1
    30    24    23   ar
    31    24    31    1
    32     7     8    1
    33     7     2    1
    34    23    27    1
    35    12    16   ar
    36    12     4    1
    37    31    30    3
    38     2     1   ar
    39     4     5   ar
    40    28    27    1
    41    27    29    1
    42    38    39    1
    43    38    40    1
    44     1     5   ar
    45     1     6    1
