@<TRIPOS>MOLECULE
mol_data/opt/m06hf/geoms/mol2/5hd5hd-5hd5hd.out
 42 45 0 0 0
SMALL
GASTEIGER

@<TRIPOS>ATOM
      1 C          -1.5960   -1.5759    1.7346 C.ar    1  LIG1       -0.0018
      2 C          -0.9290   -1.8506    0.5790 C.ar    1  LIG1        0.0499
      3 C          -0.5250   -0.6324   -0.0827 C.ar    1  LIG1        0.0876
      4 C          -0.8719    0.5139    0.5904 C.ar    1  LIG1        0.0469
      5 S          -1.6963    0.1173    2.0471 S.2     1  LIG1       -0.0929
      6 H          -2.0203   -2.2823    2.4282 H       1  LIG1        0.0712
      7 N          -0.6042   -3.1008    0.0711 N.pl3   1  LIG1       -0.3565
      8 H          -1.1722   -3.8628    0.4119 H       1  LIG1        0.1424
      9 H          -0.4662   -3.1333   -0.9306 H       1  LIG1        0.1424
     10 N           0.6861   -0.6880   -2.3639 N.1     1  LIG1       -0.1908
     11 C           0.1337   -0.6471   -1.3566 C.1     1  LIG1        0.1022
     12 C          -0.6235    1.9008    0.2112 C.ar    1  LIG1        0.0497
     13 C           0.5443    2.4606   -0.2501 C.ar    1  LIG1        0.0583
     14 C           0.3760    3.8802   -0.4688 C.ar    1  LIG1        0.0883
     15 C          -0.8665    4.3649   -0.1446 C.ar    1  LIG1        0.0475
     16 S          -1.8791    3.0939    0.4170 S.2     1  LIG1       -0.0839
     17 N           1.7589    1.8543   -0.4318 N.pl3   1  LIG1       -0.3561
     18 H           1.7727    0.8592   -0.5929 H       1  LIG1        0.1424
     19 H           2.4397    2.3690   -0.9720 H       1  LIG1        0.1424
     20 N           2.3071    5.3141   -1.4102 N.1     1  LIG1       -0.1908
     21 C           1.4318    4.6845   -1.0106 C.1     1  LIG1        0.1022
     22 C          -1.3567    5.7351   -0.2286 C.ar    1  LIG1        0.0497
     23 C          -0.7363    6.8875    0.1962 C.ar    1  LIG1        0.0583
     24 C          -1.5985    8.0307   -0.0079 C.ar    1  LIG1        0.0883
     25 C          -2.8298    7.7320   -0.5342 C.ar    1  LIG1        0.0475
     26 S          -2.9682    6.0426   -0.8171 S.2     1  LIG1       -0.0839
     27 N           0.4808    7.0202    0.8066 N.pl3   1  LIG1       -0.3561
     28 H           1.1901    6.3295    0.6173 H       1  LIG1        0.1424
     29 H           0.8343    7.9620    0.8999 H       1  LIG1        0.1424
     30 N          -0.7886   10.4124    0.5752 N.1     1  LIG1       -0.1908
     31 C          -1.1573    9.3610    0.2917 C.1     1  LIG1        0.1022
     32 C          -3.9287    8.6387   -0.8430 C.ar    1  LIG1        0.0491
     33 C          -4.4486    9.6424   -0.0556 C.ar    1  LIG1        0.0577
     34 C          -5.6092   10.2309   -0.6926 C.ar    1  LIG1        0.0800
     35 C          -5.9237    9.6703   -1.8928 C.ar    1  LIG1       -0.0045
     36 S          -4.8350    8.4303   -2.3173 S.2     1  LIG1       -0.0929
     37 H          -6.7347    9.9527   -2.5448 H       1  LIG1        0.0707
     38 N          -4.0544   10.0303    1.1960 N.pl3   1  LIG1       -0.3561
     39 H          -3.0801    9.9480    1.4422 H       1  LIG1        0.1424
     40 H          -4.5061   10.8562    1.5636 H       1  LIG1        0.1424
     41 N          -6.8731   12.1603    0.4734 N.1     1  LIG1       -0.1908
     42 C          -6.3358   11.3059   -0.0738 C.1     1  LIG1        0.1016
@<TRIPOS>BOND
     1    37    35    1
     2    10    11    3
     3    36    35   ar
     4    36    32   ar
     5    35    34   ar
     6    20    21    3
     7    11     3    1
     8    21    14    1
     9    19    17    1
    10     9     7    1
    11    32    25    1
    12    32    33   ar
    13    26    25   ar
    14    26    22   ar
    15    34    42    1
    16    34    33   ar
    17    18    17    1
    18    25    24   ar
    19    14    13   ar
    20    14    15   ar
    21    17    13    1
    22    13    12   ar
    23    22    15    1
    24    22    23   ar
    25    15    16   ar
    26     3     2   ar
    27     3     4   ar
    28    42    41    3
    29    33    38    1
    30    24    23   ar
    31    24    31    1
    32     7     8    1
    33     7     2    1
    34    23    27    1
    35    12    16   ar
    36    12     4    1
    37    31    30    3
    38     2     1   ar
    39     4     5   ar
    40    28    27    1
    41    27    29    1
    42    38    39    1
    43    38    40    1
    44     1     5   ar
    45     1     6    1
