@<TRIPOS>MOLECULE
mol_data/opt/m06hf/geoms/mol2/5hd5hd-5hd-5hd.out
 42 45 0 0 0
SMALL
GASTEIGER

@<TRIPOS>ATOM
      1 C          -1.6137   -1.5789    1.7200 C.ar    1  LIG1       -0.0018
      2 C          -0.9361   -1.8518    0.5702 C.ar    1  LIG1        0.0499
      3 C          -0.5257   -0.6325   -0.0857 C.ar    1  LIG1        0.0876
      4 C          -0.8786    0.5128    0.5860 C.ar    1  LIG1        0.0469
      5 S          -1.7166    0.1139    2.0343 S.2     1  LIG1       -0.0929
      6 H          -2.0445   -2.2862    2.4085 H       1  LIG1        0.0712
      7 N          -0.6068   -3.1012    0.0633 N.pl3   1  LIG1       -0.3565
      8 H          -1.1781   -3.8636    0.3975 H       1  LIG1        0.1424
      9 H          -0.4595   -3.1321   -0.9371 H       1  LIG1        0.1424
     10 N           0.7065   -0.6847   -2.3557 N.1     1  LIG1       -0.1908
     11 C           0.1448   -0.6453   -1.3535 C.1     1  LIG1        0.1022
     12 C          -0.6264    1.9001    0.2114 C.ar    1  LIG1        0.0497
     13 C           0.5457    2.4605   -0.2382 C.ar    1  LIG1        0.0583
     14 C           0.3797    3.8805   -0.4560 C.ar    1  LIG1        0.0883
     15 C          -0.8656    4.3649   -0.1426 C.ar    1  LIG1        0.0475
     16 S          -1.8836    3.0932    0.4075 S.2     1  LIG1       -0.0839
     17 N           1.7618    1.8542   -0.4096 N.pl3   1  LIG1       -0.3561
     18 H           1.7769    0.8594   -0.5722 H       1  LIG1        0.1424
     19 H           2.4477    2.3697   -0.9426 H       1  LIG1        0.1424
     20 N           2.3198    5.3155   -1.3772 N.1     1  LIG1       -0.1908
     21 C           1.4407    4.6854   -0.9867 C.1     1  LIG1        0.1022
     22 C          -1.3547    5.7354   -0.2289 C.ar    1  LIG1        0.0497
     23 C          -0.7381    6.8869    0.2036 C.ar    1  LIG1        0.0583
     24 C          -1.5981    8.0307   -0.0067 C.ar    1  LIG1        0.0883
     25 C          -2.8246    7.7331   -0.5448 C.ar    1  LIG1        0.0475
     26 S          -2.9607    6.0441   -0.8318 S.2     1  LIG1       -0.0839
     27 N           0.4733    7.0183    0.8254 N.pl3   1  LIG1       -0.3561
     28 H           1.1843    6.3278    0.6416 H       1  LIG1        0.1424
     29 H           0.8261    7.9600    0.9235 H       1  LIG1        0.1424
     30 N          -0.7931   10.4112    0.5879 N.1     1  LIG1       -0.1908
     31 C          -1.1595    9.3604    0.2992 C.1     1  LIG1        0.1022
     32 C          -3.9203    8.6405   -0.8623 C.ar    1  LIG1        0.0491
     33 C          -4.4473    9.6430   -0.0781 C.ar    1  LIG1        0.0577
     34 C          -5.6018   10.2329   -0.7249 C.ar    1  LIG1        0.0800
     35 C          -5.9053    9.6743   -1.9288 C.ar    1  LIG1       -0.0045
     36 S          -4.8130    8.4347   -2.3452 S.2     1  LIG1       -0.0929
     37 H          -6.7102    9.9580   -2.5878 H       1  LIG1        0.0707
     38 N          -4.0647   10.0288    1.1778 N.pl3   1  LIG1       -0.3561
     39 H          -3.0927    9.9458    1.4329 H       1  LIG1        0.1424
     40 H          -4.5196   10.8542    1.5425 H       1  LIG1        0.1424
     41 N          -6.8761   12.1606    0.4326 N.1     1  LIG1       -0.1908
     42 C          -6.3339   11.3070   -0.1111 C.1     1  LIG1        0.1016
@<TRIPOS>BOND
     1    37    35    1
     2    10    11    3
     3    36    35   ar
     4    36    32   ar
     5    35    34   ar
     6    20    21    3
     7    11     3    1
     8    21    14    1
     9    19    17    1
    10     9     7    1
    11    32    25    1
    12    32    33   ar
    13    26    25   ar
    14    26    22   ar
    15    34    42    1
    16    34    33   ar
    17    18    17    1
    18    25    24   ar
    19    14    13   ar
    20    14    15   ar
    21    17    13    1
    22    13    12   ar
    23    22    15    1
    24    22    23   ar
    25    15    16   ar
    26    42    41    3
    27     3     2   ar
    28     3     4   ar
    29    33    38    1
    30    24    23   ar
    31    24    31    1
    32     7     8    1
    33     7     2    1
    34    23    27    1
    35    12    16   ar
    36    12     4    1
    37    31    30    3
    38     2     1   ar
    39     4     5   ar
    40    28    27    1
    41    27    29    1
    42    38    39    1
    43    38    40    1
    44     1     5   ar
    45     1     6    1
