@<TRIPOS>MOLECULE
mol_data/opt/m06hf/geoms/mol2/5hd5hd5hd5hd.out
 42 45 0 0 0
SMALL
GASTEIGER

@<TRIPOS>ATOM
      1 C          -1.6167   -1.5720    1.7299 C.ar    1  LIG1       -0.0018
      2 C          -0.9378   -1.8494    0.5820 C.ar    1  LIG1        0.0499
      3 C          -0.5264   -0.6328   -0.0781 C.ar    1  LIG1        0.0876
      4 C          -0.8799    0.5151    0.5888 C.ar    1  LIG1        0.0469
      5 S          -1.7197    0.1220    2.0376 S.2     1  LIG1       -0.0929
      6 H          -2.0485   -2.2766    2.4206 H       1  LIG1        0.0712
      7 N          -0.6081   -3.1009    0.0803 N.pl3   1  LIG1       -0.3565
      8 H          -1.1800   -3.8619    0.4168 H       1  LIG1        0.1424
      9 H          -0.4597   -3.1356   -0.9198 H       1  LIG1        0.1424
     10 N           0.7083   -0.6939   -2.3465 N.1     1  LIG1       -0.1908
     11 C           0.1455   -0.6506   -1.3451 C.1     1  LIG1        0.1022
     12 C          -0.6270    1.9010    0.2091 C.ar    1  LIG1        0.0497
     13 C           0.5457    2.4594   -0.2413 C.ar    1  LIG1        0.0583
     14 C           0.3802    3.8786   -0.4648 C.ar    1  LIG1        0.0883
     15 C          -0.8654    4.3644   -0.1548 C.ar    1  LIG1        0.0475
     16 S          -1.8843    3.0950    0.3990 S.2     1  LIG1       -0.0839
     17 N           1.7619    1.8523   -0.4089 N.pl3   1  LIG1       -0.3561
     18 H           1.7770    0.8569   -0.5677 H       1  LIG1        0.1424
     19 H           2.4485    2.3656   -0.9431 H       1  LIG1        0.1424
     20 N           2.3216    5.3097   -1.3893 N.1     1  LIG1       -0.1908
     21 C           1.4420    4.6813   -0.9974 C.1     1  LIG1        0.1022
     22 C          -1.3542    5.7346   -0.2470 C.ar    1  LIG1        0.0497
     23 C          -0.7379    6.8877    0.1817 C.ar    1  LIG1        0.0583
     24 C          -1.5976    8.0308   -0.0340 C.ar    1  LIG1        0.0883
     25 C          -2.8234    7.7313   -0.5724 C.ar    1  LIG1        0.0475
     26 S          -2.9594    6.0413   -0.8530 S.2     1  LIG1       -0.0839
     27 N           0.4728    7.0214    0.8044 N.pl3   1  LIG1       -0.3561
     28 H           1.1839    6.3301    0.6241 H       1  LIG1        0.1424
     29 H           0.8256    7.9634    0.8994 H       1  LIG1        0.1424
     30 N          -0.7929   10.4135    0.5522 N.1     1  LIG1       -0.1908
     31 C          -1.1591    9.3616    0.2672 C.1     1  LIG1        0.1022
     32 C          -3.9186    8.6376   -0.8946 C.ar    1  LIG1        0.0491
     33 C          -4.4464    9.6432   -0.1149 C.ar    1  LIG1        0.0577
     34 C          -5.6001   10.2307   -0.7654 C.ar    1  LIG1        0.0800
     35 C          -5.9023    9.6675   -1.9675 C.ar    1  LIG1       -0.0045
     36 S          -4.8097    8.4262   -2.3779 S.2     1  LIG1       -0.0929
     37 H          -6.7063    9.9488   -2.6286 H       1  LIG1        0.0707
     38 N          -4.0652   10.0338    1.1398 N.pl3   1  LIG1       -0.3561
     39 H          -3.0935    9.9518    1.3963 H       1  LIG1        0.1424
     40 H          -4.5205   10.8606    1.5009 H       1  LIG1        0.1424
     41 N          -6.8755   12.1631    0.3831 N.1     1  LIG1       -0.1908
     42 C          -6.3328   11.3073   -0.1566 C.1     1  LIG1        0.1016
@<TRIPOS>BOND
     1    37    35    1
     2    36    35   ar
     3    36    32   ar
     4    10    11    3
     5    35    34   ar
     6    20    21    3
     7    11     3    1
     8    21    14    1
     9    19    17    1
    10     9     7    1
    11    32    25    1
    12    32    33   ar
    13    26    25   ar
    14    26    22   ar
    15    34    42    1
    16    34    33   ar
    17    25    24   ar
    18    18    17    1
    19    14    13   ar
    20    14    15   ar
    21    17    13    1
    22    22    15    1
    23    22    23   ar
    24    13    12   ar
    25    42    41    3
    26    15    16   ar
    27    33    38    1
    28     3     2   ar
    29     3     4   ar
    30    24    23   ar
    31    24    31    1
    32     7     8    1
    33     7     2    1
    34    23    27    1
    35    12    16   ar
    36    12     4    1
    37    31    30    3
    38     2     1   ar
    39     4     5   ar
    40    28    27    1
    41    27    29    1
    42    38    39    1
    43    38    40    1
    44     1     5   ar
    45     1     6    1
