@<TRIPOS>MOLECULE
mol_data/opt/m06hf/geoms/mol2/5hd5hd.out
 22 23 0 0 0
SMALL
GASTEIGER

@<TRIPOS>ATOM
      1 C          -2.1006   -1.7466   -0.6052 C.ar    1  LIG1       -0.0018
      2 C          -0.8240   -1.8572   -0.1438 C.ar    1  LIG1        0.0499
      3 C          -0.2807   -0.5583    0.1778 C.ar    1  LIG1        0.0876
      4 C          -1.1403    0.4854   -0.0606 C.ar    1  LIG1        0.0469
      5 S          -2.6318   -0.1065   -0.6777 S.2     1  LIG1       -0.0929
      6 H          -2.7619   -2.5459   -0.8946 H       1  LIG1        0.0712
      7 N          -0.1116   -3.0251    0.0924 N.pl3   1  LIG1       -0.3565
      8 H          -0.4385   -3.8372   -0.4102 H       1  LIG1        0.1424
      9 H           0.8945   -2.9255    0.0639 H       1  LIG1        0.1424
     10 N           2.1143   -0.2727    1.1030 N.1     1  LIG1       -0.1908
     11 C           1.0376   -0.3949    0.7184 C.1     1  LIG1        0.1022
     12 C          -0.9117    1.9149    0.1323 C.ar    1  LIG1        0.0491
     13 C           0.1737    2.6661   -0.2560 C.ar    1  LIG1        0.0577
     14 C          -0.0448    4.0644    0.0513 C.ar    1  LIG1        0.0800
     15 C          -1.2483    4.3198    0.6359 C.ar    1  LIG1       -0.0045
     16 S          -2.1541    2.8940    0.8579 S.2     1  LIG1       -0.0929
     17 H          -1.6198    5.2795    0.9572 H       1  LIG1        0.0707
     18 N           1.2973    2.2472   -0.9257 N.pl3   1  LIG1       -0.3561
     19 H           1.6506    1.3255   -0.7151 H       1  LIG1        0.1424
     20 H           2.0233    2.9436   -1.0253 H       1  LIG1        0.1424
     21 N           1.7668    5.8194   -0.5174 N.1     1  LIG1       -0.1908
     22 C           0.9434    5.0640   -0.2529 C.1     1  LIG1        0.1016
@<TRIPOS>BOND
     1    20    18    1
     2    18    19    1
     3    18    13    1
     4     6     1    1
     5     5     1   ar
     6     5     4   ar
     7     1     2   ar
     8    21    22    3
     9     8     7    1
    10    13    14   ar
    11    13    12   ar
    12    22    14    1
    13     2     7    1
    14     2     3   ar
    15     4    12    1
    16     4     3   ar
    17    14    15   ar
    18     9     7    1
    19    12    16   ar
    20     3    11    1
    21    15    16   ar
    22    15    17    1
    23    11    10    3
