@<TRIPOS>MOLECULE
mol_data/opt/m06hf/geoms/mol2/5hd5hd5hd-5hd-.out
 42 45 0 0 0
SMALL
GASTEIGER

@<TRIPOS>ATOM
      1 C          -1.6375   -1.5737    1.7160 C.ar    1  LIG1       -0.0018
      2 C          -0.9461   -1.8503    0.5753 C.ar    1  LIG1        0.0499
      3 C          -0.5273   -0.6332   -0.0792 C.ar    1  LIG1        0.0876
      4 C          -0.8880    0.5143    0.5847 C.ar    1  LIG1        0.0469
      5 S          -1.7436    0.1201    2.0239 S.2     1  LIG1       -0.0929
      6 H          -2.0770   -2.2788    2.4013 H       1  LIG1        0.0712
      7 N          -0.6111   -3.1013    0.0762 N.pl3   1  LIG1       -0.3565
      8 H          -1.1867   -3.8626    0.4058 H       1  LIG1        0.1424
      9 H          -0.4517   -3.1353   -0.9222 H       1  LIG1        0.1424
     10 N           0.7323   -0.6926   -2.3339 N.1     1  LIG1       -0.1908
     11 C           0.1585   -0.6500   -1.3388 C.1     1  LIG1        0.1022
     12 C          -0.6308    1.9004    0.2090 C.ar    1  LIG1        0.0497
     13 C           0.5469    2.4591   -0.2280 C.ar    1  LIG1        0.0583
     14 C           0.3841    3.8784   -0.4522 C.ar    1  LIG1        0.0883
     15 C          -0.8648    4.3642   -0.1554 C.ar    1  LIG1        0.0475
     16 S          -1.8898    3.0944    0.3861 S.2     1  LIG1       -0.0839
     17 N           1.7648    1.8519   -0.3828 N.pl3   1  LIG1       -0.3561
     18 H           1.7815    0.8566   -0.5422 H       1  LIG1        0.1424
     19 H           2.4573    2.3655   -0.9090 H       1  LIG1        0.1424
     20 N           2.3357    5.3100   -1.3540 N.1     1  LIG1       -0.1908
     21 C           1.4517    4.6814   -0.9724 C.1     1  LIG1        0.1022
     22 C          -1.3524    5.7345   -0.2518 C.ar    1  LIG1        0.0497
     23 C          -0.7406    6.8872    0.1846 C.ar    1  LIG1        0.0583
     24 C          -1.5977    8.0306   -0.0395 C.ar    1  LIG1        0.0883
     25 C          -2.8175    7.7317   -0.5916 C.ar    1  LIG1        0.0475
     26 S          -2.9507    6.0419   -0.8751 S.2     1  LIG1       -0.0839
     27 N           0.4632    7.0201    0.8207 N.pl3   1  LIG1       -0.3561
     28 H           1.1761    6.3288    0.6477 H       1  LIG1        0.1424
     29 H           0.8151    7.9619    0.9203 H       1  LIG1        0.1424
     30 N          -0.7991   10.4127    0.5575 N.1     1  LIG1       -0.1908
     31 C          -1.1623    9.3611    0.2676 C.1     1  LIG1        0.1022
     32 C          -3.9090    8.6385   -0.9251 C.ar    1  LIG1        0.0491
     33 C          -4.4452    9.6436   -0.1504 C.ar    1  LIG1        0.0577
     34 C          -5.5916   10.2318   -0.8130 C.ar    1  LIG1        0.0800
     35 C          -5.8806    9.6697   -2.0189 C.ar    1  LIG1       -0.0045
     36 S          -4.7837    8.4285   -2.4182 S.2     1  LIG1       -0.0929
     37 H          -6.6773    9.9516   -2.6885 H       1  LIG1        0.0707
     38 N          -4.0777   10.0330    1.1088 N.pl3   1  LIG1       -0.3561
     39 H          -3.1089    9.9506    1.3759 H       1  LIG1        0.1424
     40 H          -4.5368   10.8597    1.4655 H       1  LIG1        0.1424
     41 N          -6.8792   12.1634    0.3230 N.1     1  LIG1       -0.1908
     42 C          -6.3307   11.3080   -0.2114 C.1     1  LIG1        0.1016
@<TRIPOS>BOND
     1    37    35    1
     2    36    35   ar
     3    36    32   ar
     4    10    11    3
     5    35    34   ar
     6    20    21    3
     7    11     3    1
     8    21    14    1
     9    32    25    1
    10    32    33   ar
    11     9     7    1
    12    19    17    1
    13    26    25   ar
    14    26    22   ar
    15    34    42    1
    16    34    33   ar
    17    25    24   ar
    18    18    17    1
    19    14    13   ar
    20    14    15   ar
    21    17    13    1
    22    22    15    1
    23    22    23   ar
    24    13    12   ar
    25    42    41    3
    26    15    16   ar
    27    33    38    1
    28     3     2   ar
    29     3     4   ar
    30    24    23   ar
    31    24    31    1
    32     7     8    1
    33     7     2    1
    34    23    27    1
    35    12    16   ar
    36    12     4    1
    37    31    30    3
    38     2     1   ar
    39     4     5   ar
    40    28    27    1
    41    27    29    1
    42    38    39    1
    43    38    40    1
    44     1     5   ar
    45     1     6    1
