@<TRIPOS>MOLECULE
mol_data/opt/m06hf/geoms/mol2/5hd5hd-5hd-.out
 32 34 0 0 0
SMALL
GASTEIGER

@<TRIPOS>ATOM
      1 C          -1.8180   -1.7392    1.1414 C.ar    1  LIG1       -0.0018
      2 C          -0.8365   -1.9095    0.2124 C.ar    1  LIG1        0.0499
      3 C          -0.3619   -0.6352   -0.2728 C.ar    1  LIG1        0.0876
      4 C          -0.9737    0.4494    0.3068 C.ar    1  LIG1        0.0469
      5 S          -2.1357   -0.0743    1.4627 S.2     1  LIG1       -0.0929
      6 H          -2.3640   -2.5073    1.6637 H       1  LIG1        0.0712
      7 N          -0.2821   -3.1070   -0.2201 N.pl3   1  LIG1       -0.3565
      8 H          -0.8423   -3.9275   -0.0378 H       1  LIG1        0.1424
      9 H           0.0867   -3.0908   -1.1619 H       1  LIG1        0.1424
     10 N           1.4666   -0.4665   -2.0907 N.1     1  LIG1       -0.1908
     11 C           0.6390   -0.5323   -1.2955 C.1     1  LIG1        0.1022
     12 C          -0.7313    1.8672    0.0586 C.ar    1  LIG1        0.0497
     13 C           0.4752    2.5227   -0.0045 C.ar    1  LIG1        0.0583
     14 C           0.2725    3.9369   -0.2249 C.ar    1  LIG1        0.0883
     15 C          -1.0425    4.3213   -0.2941 C.ar    1  LIG1        0.0475
     16 S          -2.0765    2.9630   -0.1044 S.2     1  LIG1       -0.0839
     17 N           1.7302    2.0019    0.1780 N.pl3   1  LIG1       -0.3561
     18 H           1.8690    1.0257   -0.0359 H       1  LIG1        0.1424
     19 H           2.4996    2.5921   -0.1059 H       1  LIG1        0.1424
     20 N           2.2713    5.5523   -0.4859 N.1     1  LIG1       -0.1908
     21 C           1.3742    4.8395   -0.3912 C.1     1  LIG1        0.1022
     22 C          -1.5817    5.6602   -0.5064 C.ar    1  LIG1        0.0491
     23 C          -1.2228    6.8296    0.1250 C.ar    1  LIG1        0.0577
     24 C          -2.0607    7.9218   -0.3255 C.ar    1  LIG1        0.0800
     25 C          -2.9963    7.5557   -1.2451 C.ar    1  LIG1       -0.0045
     26 S          -2.9020    5.8966   -1.6167 S.2     1  LIG1       -0.0929
     27 H          -3.7178    8.1986   -1.7230 H       1  LIG1        0.0707
     28 N          -0.2908    7.0073    1.1130 N.pl3   1  LIG1       -0.3561
     29 H           0.5192    6.4061    1.1177 H       1  LIG1        0.1424
     30 H          -0.0910    7.9663    1.3613 H       1  LIG1        0.1424
     31 N          -1.7073   10.3001    0.6234 N.1     1  LIG1       -0.1908
     32 C          -1.8908    9.2564    0.1818 C.1     1  LIG1        0.1016
@<TRIPOS>BOND
     1    10    11    3
     2    27    25    1
     3    26    25   ar
     4    26    22   ar
     5    11     3    1
     6    25    24   ar
     7     9     7    1
     8    22    15    1
     9    22    23   ar
    10    20    21    3
    11    21    14    1
    12    24    23   ar
    13    24    32    1
    14    15    14   ar
    15    15    16   ar
    16     3     2   ar
    17     3     4   ar
    18    14    13   ar
    19     7     8    1
    20     7     2    1
    21    19    17    1
    22    16    12   ar
    23    18    17    1
    24    13    12   ar
    25    13    17    1
    26    12     4    1
    27    23    28    1
    28    32    31    3
    29     2     1   ar
    30     4     5   ar
    31    28    29    1
    32    28    30    1
    33     1     5   ar
    34     1     6    1
