@<TRIPOS>MOLECULE
mol_data/opt/m06hf/geoms/mol2/5hd5hd5hd.out
 32 34 0 0 0
SMALL
GASTEIGER

@<TRIPOS>ATOM
      1 C          -1.8298   -1.7332    1.1428 C.ar    1  LIG1       -0.0018
      2 C          -0.8402   -1.9082    0.2233 C.ar    1  LIG1        0.0499
      3 C          -0.3611   -0.6364   -0.2640 C.ar    1  LIG1        0.0876
      4 C          -0.9777    0.4512    0.3050 C.ar    1  LIG1        0.0469
      5 S          -2.1499   -0.0666    1.4532 S.2     1  LIG1       -0.0929
      6 H          -2.3806   -2.4986    1.6640 H       1  LIG1        0.0712
      7 N          -0.2824   -3.1079   -0.1986 N.pl3   1  LIG1       -0.3565
      8 H          -0.8444   -3.9273   -0.0173 H       1  LIG1        0.1424
      9 H           0.0947   -3.0963   -1.1372 H       1  LIG1        0.1424
     10 N           1.4833   -0.4768   -2.0666 N.1     1  LIG1       -0.1908
     11 C           0.6487   -0.5386   -1.2783 C.1     1  LIG1        0.1022
     12 C          -0.7327    1.8677    0.0521 C.ar    1  LIG1        0.0497
     13 C           0.4745    2.5227   -0.0037 C.ar    1  LIG1        0.0583
     14 C           0.2740    3.9358   -0.2326 C.ar    1  LIG1        0.0883
     15 C          -1.0402    4.3201   -0.3151 C.ar    1  LIG1        0.0475
     16 S          -2.0761    2.9630   -0.1279 S.2     1  LIG1       -0.0839
     17 N           1.7277    2.0024    0.1923 N.pl3   1  LIG1       -0.3561
     18 H           1.8681    1.0252   -0.0157 H       1  LIG1        0.1424
     19 H           2.4997    2.5911   -0.0877 H       1  LIG1        0.1424
     20 N           2.2755    5.5495   -0.4840 N.1     1  LIG1       -0.1908
     21 C           1.3774    4.8373   -0.3937 C.1     1  LIG1        0.1022
     22 C          -1.5771    5.6581   -0.5387 C.ar    1  LIG1        0.0491
     23 C          -1.2235    6.8305    0.0901 C.ar    1  LIG1        0.0577
     24 C          -2.0571    7.9206   -0.3730 C.ar    1  LIG1        0.0800
     25 C          -2.9848    7.5503   -1.2989 C.ar    1  LIG1       -0.0045
     26 S          -2.8876    5.8894   -1.6615 S.2     1  LIG1       -0.0929
     27 H          -3.7019    8.1910   -1.7862 H       1  LIG1        0.0707
     28 N          -0.3000    7.0128    1.0854 N.pl3   1  LIG1       -0.3561
     29 H           0.5097    6.4115    1.1000 H       1  LIG1        0.1424
     30 H          -0.1021    7.9729    1.3307 H       1  LIG1        0.1424
     31 N          -1.7113   10.3035    0.5674 N.1     1  LIG1       -0.1908
     32 C          -1.8912    9.2577    0.1293 C.1     1  LIG1        0.1016
@<TRIPOS>BOND
     1    10    11    3
     2    27    25    1
     3    26    25   ar
     4    26    22   ar
     5    25    24   ar
     6    11     3    1
     7     9     7    1
     8    22    15    1
     9    22    23   ar
    10    20    21    3
    11    21    14    1
    12    24    23   ar
    13    24    32    1
    14    15    14   ar
    15    15    16   ar
    16     3     2   ar
    17     3     4   ar
    18    14    13   ar
    19     7     8    1
    20     7     2    1
    21    16    12   ar
    22    19    17    1
    23    18    17    1
    24    13    12   ar
    25    13    17    1
    26    12     4    1
    27    23    28    1
    28    32    31    3
    29     2     1   ar
    30     4     5   ar
    31    28    29    1
    32    28    30    1
    33     1     5   ar
    34     1     6    1
