@<TRIPOS>MOLECULE
mol_data/opt/m06hf/geoms/mol2/5hd5hd5hd-5hd.out
 42 45 0 0 0
SMALL
GASTEIGER

@<TRIPOS>ATOM
      1 C          -1.6360   -1.5760    1.7116 C.ar    1  LIG1       -0.0018
      2 C          -0.9451   -1.8510    0.5703 C.ar    1  LIG1        0.0499
      3 C          -0.5266   -0.6329   -0.0828 C.ar    1  LIG1        0.0876
      4 C          -0.8871    0.5136    0.5828 C.ar    1  LIG1        0.0469
      5 S          -1.7421    0.1174    2.0218 S.2     1  LIG1       -0.0929
      6 H          -2.0751   -2.2821    2.3961 H       1  LIG1        0.0712
      7 N          -0.6101   -3.1013    0.0693 N.pl3   1  LIG1       -0.3565
      8 H          -1.1855   -3.8630    0.3981 H       1  LIG1        0.1424
      9 H          -0.4512   -3.1339   -0.9292 H       1  LIG1        0.1424
     10 N           0.7321   -0.6892   -2.3381 N.1     1  LIG1       -0.1908
     11 C           0.1587   -0.6480   -1.3426 C.1     1  LIG1        0.1022
     12 C          -0.6302    1.9003    0.2089 C.ar    1  LIG1        0.0497
     13 C           0.5473    2.4596   -0.2278 C.ar    1  LIG1        0.0583
     14 C           0.3843    3.8793   -0.4500 C.ar    1  LIG1        0.0883
     15 C          -0.8645    4.3645   -0.1521 C.ar    1  LIG1        0.0475
     16 S          -1.8892    3.0939    0.3882 S.2     1  LIG1       -0.0839
     17 N           1.7652    1.8527   -0.3840 N.pl3   1  LIG1       -0.3561
     18 H           1.7819    0.8576   -0.5447 H       1  LIG1        0.1424
     19 H           2.4574    2.3671   -0.9098 H       1  LIG1        0.1424
     20 N           2.3354    5.3122   -1.3507 N.1     1  LIG1       -0.1908
     21 C           1.4516    4.6830   -0.9696 C.1     1  LIG1        0.1022
     22 C          -1.3523    5.7349   -0.2464 C.ar    1  LIG1        0.0497
     23 C          -0.7404    6.8870    0.1914 C.ar    1  LIG1        0.0583
     24 C          -1.5977    8.0307   -0.0309 C.ar    1  LIG1        0.0883
     25 C          -2.8177    7.7325   -0.5829 C.ar    1  LIG1        0.0475
     26 S          -2.9509    6.0431   -0.8686 S.2     1  LIG1       -0.0839
     27 N           0.4636    7.0192    0.8271 N.pl3   1  LIG1       -0.3561
     28 H           1.1765    6.3282    0.6528 H       1  LIG1        0.1424
     29 H           0.8155    7.9609    0.9278 H       1  LIG1        0.1424
     30 N          -0.7990   10.4120    0.5691 N.1     1  LIG1       -0.1908
     31 C          -1.1622    9.3608    0.2779 C.1     1  LIG1        0.1022
     32 C          -3.9094    8.6396   -0.9147 C.ar    1  LIG1        0.0491
     33 C          -4.4454    9.6436   -0.1384 C.ar    1  LIG1        0.0577
     34 C          -5.5921   10.2326   -0.7998 C.ar    1  LIG1        0.0800
     35 C          -5.8815    9.6721   -2.0062 C.ar    1  LIG1       -0.0045
     36 S          -4.7847    8.4316   -2.4077 S.2     1  LIG1       -0.0929
     37 H          -6.6785    9.9549   -2.6751 H       1  LIG1        0.0707
     38 N          -4.0774   10.0314    1.1212 N.pl3   1  LIG1       -0.3561
     39 H          -3.1085    9.9486    1.3878 H       1  LIG1        0.1424
     40 H          -4.5363   10.8575    1.4792 H       1  LIG1        0.1424
     41 N          -6.8794   12.1626    0.3394 N.1     1  LIG1       -0.1908
     42 C          -6.3310   11.3079   -0.1964 C.1     1  LIG1        0.1016
@<TRIPOS>BOND
     1    37    35    1
     2    36    35   ar
     3    36    32   ar
     4    10    11    3
     5    35    34   ar
     6    20    21    3
     7    11     3    1
     8    21    14    1
     9     9     7    1
    10    32    25    1
    11    32    33   ar
    12    19    17    1
    13    26    25   ar
    14    26    22   ar
    15    34    42    1
    16    34    33   ar
    17    25    24   ar
    18    18    17    1
    19    14    13   ar
    20    14    15   ar
    21    17    13    1
    22    22    15    1
    23    22    23   ar
    24    13    12   ar
    25    42    41    3
    26    15    16   ar
    27    33    38    1
    28     3     2   ar
    29     3     4   ar
    30    24    23   ar
    31    24    31    1
    32     7     8    1
    33     7     2    1
    34    23    27    1
    35    12    16   ar
    36    12     4    1
    37    31    30    3
    38     2     1   ar
    39     4     5   ar
    40    28    27    1
    41    27    29    1
    42    38    39    1
    43    38    40    1
    44     1     5   ar
    45     1     6    1
