@<TRIPOS>MOLECULE
mol_data/opt/m06hf/geoms/mol2/5hd5hd-5hd.out
 32 34 0 0 0
SMALL
GASTEIGER

@<TRIPOS>ATOM
      1 C          -1.8152   -1.7351    1.1548 C.ar    1  LIG1       -0.0018
      2 C          -0.8355   -1.9085    0.2244 C.ar    1  LIG1        0.0499
      3 C          -0.3621   -0.6358   -0.2661 C.ar    1  LIG1        0.0876
      4 C          -0.9730    0.4507    0.3110 C.ar    1  LIG1        0.0469
      5 S          -2.1326   -0.0692    1.4710 S.2     1  LIG1       -0.0929
      6 H          -2.3601   -2.5015    1.6808 H       1  LIG1        0.0712
      7 N          -0.2817   -3.1074   -0.2050 N.pl3   1  LIG1       -0.3565
      8 H          -0.8415   -3.9273   -0.0189 H       1  LIG1        0.1424
      9 H           0.0852   -3.0944   -1.1476 H       1  LIG1        0.1424
     10 N           1.4628   -0.4730   -2.0882 N.1     1  LIG1       -0.1908
     11 C           0.6367   -0.5363   -1.2911 C.1     1  LIG1        0.1022
     12 C          -0.7312    1.8676    0.0574 C.ar    1  LIG1        0.0497
     13 C           0.4750    2.5232   -0.0104 C.ar    1  LIG1        0.0583
     14 C           0.2716    3.9365   -0.2352 C.ar    1  LIG1        0.0883
     15 C          -1.0436    4.3204   -0.3031 C.ar    1  LIG1        0.0475
     16 S          -2.0769    2.9627   -0.1066 S.2     1  LIG1       -0.0839
     17 N           1.7305    2.0032    0.1715 N.pl3   1  LIG1       -0.3561
     18 H           1.8690    1.0263   -0.0394 H       1  LIG1        0.1424
     19 H           2.4992    2.5926   -0.1160 H       1  LIG1        0.1424
     20 N           2.2696    5.5514   -0.5058 N.1     1  LIG1       -0.1908
     21 C           1.3729    4.8388   -0.4068 C.1     1  LIG1        0.1022
     22 C          -1.5834    5.6586   -0.5190 C.ar    1  LIG1        0.0491
     23 C          -1.2235    6.8302    0.1076 C.ar    1  LIG1        0.0577
     24 C          -2.0624    7.9207   -0.3449 C.ar    1  LIG1        0.0800
     25 C          -2.9999    7.5513   -1.2613 C.ar    1  LIG1       -0.0045
     26 S          -2.9060    5.8909   -1.6274 S.2     1  LIG1       -0.0929
     27 H          -3.7224    8.1924   -1.7401 H       1  LIG1        0.0707
     28 N          -0.2895    7.0115    1.0932 N.pl3   1  LIG1       -0.3561
     29 H           0.5206    6.4105    1.0983 H       1  LIG1        0.1424
     30 H          -0.0894    7.9713    1.3378 H       1  LIG1        0.1424
     31 N          -1.7075   10.3023    0.5950 N.1     1  LIG1       -0.1908
     32 C          -1.8917    9.2571    0.1574 C.1     1  LIG1        0.1016
@<TRIPOS>BOND
     1    10    11    3
     2    27    25    1
     3    26    25   ar
     4    26    22   ar
     5    11     3    1
     6    25    24   ar
     7     9     7    1
     8    22    15    1
     9    22    23   ar
    10    20    21    3
    11    21    14    1
    12    24    23   ar
    13    24    32    1
    14    15    14   ar
    15    15    16   ar
    16     3     2   ar
    17     3     4   ar
    18    14    13   ar
    19     7     8    1
    20     7     2    1
    21    19    17    1
    22    16    12   ar
    23    18    17    1
    24    13    12   ar
    25    13    17    1
    26    12     4    1
    27    23    28    1
    28    32    31    3
    29     2     1   ar
    30     4     5   ar
    31    28    29    1
    32    28    30    1
    33     1     5   ar
    34     1     6    1
