@<TRIPOS>MOLECULE
mol_data/opt/m06hf/geoms/mol2/5hd5hd5hd-.out
 32 34 0 0 0
SMALL
GASTEIGER

@<TRIPOS>ATOM
      1 C          -1.8320   -1.7358    1.1350 C.ar    1  LIG1       -0.0018
      2 C          -0.8407   -1.9089    0.2170 C.ar    1  LIG1        0.0499
      3 C          -0.3606   -0.6359   -0.2664 C.ar    1  LIG1        0.0876
      4 C          -0.9782    0.4503    0.3039 C.ar    1  LIG1        0.0469
      5 S          -2.1525   -0.0700    1.4487 S.2     1  LIG1       -0.0929
      6 H          -2.3838   -2.5024    1.6535 H       1  LIG1        0.0712
      7 N          -0.2821   -3.1077   -0.2065 N.pl3   1  LIG1       -0.3565
      8 H          -0.8445   -3.9274   -0.0282 H       1  LIG1        0.1424
      9 H           0.0967   -3.0939   -1.1444 H       1  LIG1        0.1424
     10 N           1.4873   -0.4724   -2.0652 N.1     1  LIG1       -0.1908
     11 C           0.6512   -0.5360   -1.2786 C.1     1  LIG1        0.1022
     12 C          -0.7326    1.8674    0.0546 C.ar    1  LIG1        0.0497
     13 C           0.4747    2.5224    0.0027 C.ar    1  LIG1        0.0583
     14 C           0.2748    3.9361   -0.2234 C.ar    1  LIG1        0.0883
     15 C          -1.0393    4.3207   -0.3076 C.ar    1  LIG1        0.0475
     16 S          -2.0756    2.9632   -0.1254 S.2     1  LIG1       -0.0839
     17 N           1.7275    2.0017    0.1999 N.pl3   1  LIG1       -0.3561
     18 H           1.8682    1.0249   -0.0100 H       1  LIG1        0.1424
     19 H           2.5001    2.5909   -0.0773 H       1  LIG1        0.1424
     20 N           2.2768    5.5502   -0.4673 N.1     1  LIG1       -0.1908
     21 C           1.3785    4.8380   -0.3803 C.1     1  LIG1        0.1022
     22 C          -1.5757    5.6592   -0.5291 C.ar    1  LIG1        0.0491
     23 C          -1.2232    6.8302    0.1031 C.ar    1  LIG1        0.0577
     24 C          -2.0558    7.9214   -0.3590 C.ar    1  LIG1        0.0800
     25 C          -2.9818    7.5533   -1.2876 C.ar    1  LIG1       -0.0045
     26 S          -2.8841    5.8932   -1.6539 S.2     1  LIG1       -0.0929
     27 H          -3.6979    8.1951   -1.7748 H       1  LIG1        0.0707
     28 N          -0.3016    7.0101    1.1005 N.pl3   1  LIG1       -0.3561
     29 H           0.5080    6.4087    1.1153 H       1  LIG1        0.1424
     30 H          -0.1041    7.9696    1.3485 H       1  LIG1        0.1424
     31 N          -1.7117   10.3020    0.5875 N.1     1  LIG1       -0.1908
     32 C          -1.8909    9.2573    0.1466 C.1     1  LIG1        0.1016
@<TRIPOS>BOND
     1    10    11    3
     2    27    25    1
     3    26    25   ar
     4    26    22   ar
     5    25    24   ar
     6    11     3    1
     7     9     7    1
     8    22    15    1
     9    22    23   ar
    10    20    21    3
    11    21    14    1
    12    24    23   ar
    13    24    32    1
    14    15    14   ar
    15    15    16   ar
    16     3     2   ar
    17     3     4   ar
    18    14    13   ar
    19     7     8    1
    20     7     2    1
    21    16    12   ar
    22    19    17    1
    23    18    17    1
    24    13    12   ar
    25    13    17    1
    26    12     4    1
    27    23    28    1
    28    32    31    3
    29     2     1   ar
    30     4     5   ar
    31    28    29    1
    32    28    30    1
    33     1     5   ar
    34     1     6    1
