@<TRIPOS>MOLECULE
mol_data/opt/m06hf/geoms/mol2/5hd5hd5hd5hd-.out
 42 45 0 0 0
SMALL
GASTEIGER

@<TRIPOS>ATOM
      1 C          -1.6172   -1.5698    1.7340 C.ar    1  LIG1       -0.0018
      2 C          -0.9372   -1.8486    0.5870 C.ar    1  LIG1        0.0499
      3 C          -0.5255   -0.6327   -0.0744 C.ar    1  LIG1        0.0876
      4 C          -0.8798    0.5160    0.5907 C.ar    1  LIG1        0.0469
      5 S          -1.7208    0.1246    2.0393 S.2     1  LIG1       -0.0929
      6 H          -2.0494   -2.2736    2.4252 H       1  LIG1        0.0712
      7 N          -0.6067   -3.1006    0.0872 N.pl3   1  LIG1       -0.3565
      8 H          -1.1787   -3.8613    0.4242 H       1  LIG1        0.1424
      9 H          -0.4574   -3.1366   -0.9127 H       1  LIG1        0.1424
     10 N           0.7113   -0.6965   -2.3415 N.1     1  LIG1       -0.1908
     11 C           0.1476   -0.6520   -1.3407 C.1     1  LIG1        0.1022
     12 C          -0.6270    1.9014    0.2094 C.ar    1  LIG1        0.0497
     13 C           0.5460    2.4596   -0.2406 C.ar    1  LIG1        0.0583
     14 C           0.3804    3.8784   -0.4661 C.ar    1  LIG1        0.0883
     15 C          -0.8656    4.3644   -0.1578 C.ar    1  LIG1        0.0475
     16 S          -1.8846    3.0954    0.3967 S.2     1  LIG1       -0.0839
     17 N           1.7625    1.8525   -0.4064 N.pl3   1  LIG1       -0.3561
     18 H           1.7780    0.8568   -0.5638 H       1  LIG1        0.1424
     19 H           2.4495    2.3652   -0.9406 H       1  LIG1        0.1424
     20 N           2.3223    5.3087   -1.3907 N.1     1  LIG1       -0.1908
     21 C           1.4425    4.6806   -0.9988 C.1     1  LIG1        0.1022
     22 C          -1.3546    5.7343   -0.2522 C.ar    1  LIG1        0.0497
     23 C          -0.7389    6.8881    0.1755 C.ar    1  LIG1        0.0583
     24 C          -1.5987    8.0307   -0.0424 C.ar    1  LIG1        0.0883
     25 C          -2.8239    7.7302   -0.5815 C.ar    1  LIG1        0.0475
     26 S          -2.9593    6.0398   -0.8600 S.2     1  LIG1       -0.0839
     27 N           0.4712    7.0228    0.7991 N.pl3   1  LIG1       -0.3561
     28 H           1.1825    6.3314    0.6204 H       1  LIG1        0.1424
     29 H           0.8237    7.9650    0.8932 H       1  LIG1        0.1424
     30 N          -0.7950   10.4144    0.5414 N.1     1  LIG1       -0.1908
     31 C          -1.1607    9.3620    0.2574 C.1     1  LIG1        0.1022
     32 C          -3.9191    8.6359   -0.9060 C.ar    1  LIG1        0.0491
     33 C          -4.4478    9.6424   -0.1280 C.ar    1  LIG1        0.0577
     34 C          -5.6010   10.2288   -0.7803 C.ar    1  LIG1        0.0800
     35 C          -5.9020    9.6640   -1.9820 C.ar    1  LIG1       -0.0045
     36 S          -4.8087    8.4224   -2.3897 S.2     1  LIG1       -0.0929
     37 H          -6.7055    9.9442   -2.6441 H       1  LIG1        0.0707
     38 N          -4.0678   10.0347    1.1265 N.pl3   1  LIG1       -0.3561
     39 H          -3.0963    9.9532    1.3841 H       1  LIG1        0.1424
     40 H          -4.5235   10.8619    1.4861 H       1  LIG1        0.1424
     41 N          -6.8778   12.1624    0.3645 N.1     1  LIG1       -0.1908
     42 C          -6.3344   11.3060   -0.1736 C.1     1  LIG1        0.1016
@<TRIPOS>BOND
     1    37    35    1
     2    36    35   ar
     3    36    32   ar
     4    10    11    3
     5    35    34   ar
     6    20    21    3
     7    11     3    1
     8    21    14    1
     9    19    17    1
    10     9     7    1
    11    32    25    1
    12    32    33   ar
    13    26    25   ar
    14    26    22   ar
    15    34    42    1
    16    34    33   ar
    17    25    24   ar
    18    18    17    1
    19    14    13   ar
    20    14    15   ar
    21    17    13    1
    22    22    15    1
    23    22    23   ar
    24    13    12   ar
    25    42    41    3
    26    15    16   ar
    27    33    38    1
    28     3     2   ar
    29     3     4   ar
    30    24    23   ar
    31    24    31    1
    32     7     8    1
    33     7     2    1
    34    23    27    1
    35    12    16   ar
    36    12     4    1
    37    31    30    3
    38     2     1   ar
    39     4     5   ar
    40    28    27    1
    41    27    29    1
    42    38    39    1
    43    38    40    1
    44     1     5   ar
    45     1     6    1
