@<TRIPOS>MOLECULE
mol_data/opt/m06hf/geoms/mol2/5hd5hd-5hd-5hd-.out
 42 45 0 0 0
SMALL
GASTEIGER

@<TRIPOS>ATOM
      1 C          -1.6159   -1.5774    1.7216 C.ar    1  LIG1       -0.0018
      2 C          -0.9387   -1.8516    0.5719 C.ar    1  LIG1        0.0499
      3 C          -0.5280   -0.6331   -0.0852 C.ar    1  LIG1        0.0876
      4 C          -0.8803    0.5129    0.5856 C.ar    1  LIG1        0.0469
      5 S          -1.7180    0.1157    2.0344 S.2     1  LIG1       -0.0929
      6 H          -2.0468   -2.2840    2.4108 H       1  LIG1        0.0712
      7 N          -0.6100   -3.1016    0.0660 N.pl3   1  LIG1       -0.3565
      8 H          -1.1815   -3.8635    0.4011 H       1  LIG1        0.1424
      9 H          -0.4631   -3.1334   -0.9344 H       1  LIG1        0.1424
     10 N           0.7035   -0.6878   -2.3555 N.1     1  LIG1       -0.1908
     11 C           0.1421   -0.6473   -1.3532 C.1     1  LIG1        0.1022
     12 C          -0.6277    1.8999    0.2096 C.ar    1  LIG1        0.0497
     13 C           0.5445    2.4594   -0.2408 C.ar    1  LIG1        0.0583
     14 C           0.3791    3.8792   -0.4599 C.ar    1  LIG1        0.0883
     15 C          -0.8660    4.3644   -0.1466 C.ar    1  LIG1        0.0475
     16 S          -1.8843    3.0936    0.4049 S.2     1  LIG1       -0.0839
     17 N           1.7604    1.8525   -0.4120 N.pl3   1  LIG1       -0.3561
     18 H           1.7751    0.8575   -0.5737 H       1  LIG1        0.1424
     19 H           2.4463    2.3672   -0.9456 H       1  LIG1        0.1424
     20 N           2.3194    5.3126   -1.3829 N.1     1  LIG1       -0.1908
     21 C           1.4402    4.6833   -0.9916 C.1     1  LIG1        0.1022
     22 C          -1.3547    5.7350   -0.2340 C.ar    1  LIG1        0.0497
     23 C          -0.7374    6.8867    0.1972 C.ar    1  LIG1        0.0583
     24 C          -1.5971    8.0306   -0.0139 C.ar    1  LIG1        0.0883
     25 C          -2.8238    7.7329   -0.5514 C.ar    1  LIG1        0.0475
     26 S          -2.9606    6.0438   -0.8368 S.2     1  LIG1       -0.0839
     27 N           0.4742    7.0182    0.8185 N.pl3   1  LIG1       -0.3561
     28 H           1.1848    6.3273    0.6352 H       1  LIG1        0.1424
     29 H           0.8273    7.9598    0.9158 H       1  LIG1        0.1424
     30 N          -0.7911   10.4114    0.5782 N.1     1  LIG1       -0.1908
     31 C          -1.1579    9.3604    0.2906 C.1     1  LIG1        0.1022
     32 C          -3.9193    8.6405   -0.8694 C.ar    1  LIG1        0.0491
     33 C          -4.4457    9.6439   -0.0860 C.ar    1  LIG1        0.0577
     34 C          -5.6002   10.2336   -0.7331 C.ar    1  LIG1        0.0800
     35 C          -5.9042    9.6741   -1.9364 C.ar    1  LIG1       -0.0045
     36 S          -4.8125    8.4337   -2.3520 S.2     1  LIG1       -0.0929
     37 H          -6.7091    9.9574   -2.5955 H       1  LIG1        0.0707
     38 N          -4.0626   10.0307    1.1694 N.pl3   1  LIG1       -0.3561
     39 H          -3.0906    9.9476    1.4243 H       1  LIG1        0.1424
     40 H          -4.5171   10.8566    1.5335 H       1  LIG1        0.1424
     41 N          -6.8735   12.1629    0.4229 N.1     1  LIG1       -0.1908
     42 C          -6.3317   11.3085   -0.1201 C.1     1  LIG1        0.1016
@<TRIPOS>BOND
     1    37    35    1
     2    10    11    3
     3    36    35   ar
     4    36    32   ar
     5    35    34   ar
     6    20    21    3
     7    11     3    1
     8    21    14    1
     9    19    17    1
    10     9     7    1
    11    32    25    1
    12    32    33   ar
    13    26    25   ar
    14    26    22   ar
    15    34    42    1
    16    34    33   ar
    17    18    17    1
    18    25    24   ar
    19    14    13   ar
    20    14    15   ar
    21    17    13    1
    22    13    12   ar
    23    22    15    1
    24    22    23   ar
    25    15    16   ar
    26    42    41    3
    27    33    38    1
    28     3     2   ar
    29     3     4   ar
    30    24    23   ar
    31    24    31    1
    32     7     8    1
    33     7     2    1
    34    23    27    1
    35    12    16   ar
    36    12     4    1
    37    31    30    3
    38     2     1   ar
    39     4     5   ar
    40    28    27    1
    41    27    29    1
    42    38    39    1
    43    38    40    1
    44     1     5   ar
    45     1     6    1
