@<TRIPOS>MOLECULE
mol_data/opt/m06hf/geoms/mol2/5he.out
 13 13 0 0 0
SMALL
GASTEIGER

@<TRIPOS>ATOM
      1 C          -2.1403   -1.6986   -0.0375 C.ar    1  LIG1       -0.0024
      2 C          -0.7789   -1.6916   -0.0422 C.ar    1  LIG1        0.0472
      3 C          -0.2557   -0.3400   -0.0006 C.ar    1  LIG1        0.0523
      4 C          -1.2404    0.6026    0.0393 C.ar    1  LIG1       -0.0071
      5 S          -2.7977   -0.1030    0.0240 S.2     1  LIG1       -0.1020
      6 H          -2.7906   -2.5572   -0.0493 H       1  LIG1        0.0712
      7 H          -1.1083    1.6714    0.0703 H       1  LIG1        0.0706
      8 N           0.0681   -2.7975   -0.0312 N.pl3   1  LIG1       -0.3566
      9 H          -0.3105   -3.6251   -0.4686 H       1  LIG1        0.1424
     10 H           1.0053   -2.5856   -0.3487 H       1  LIG1        0.1424
     11 C           1.1539   -0.0672   -0.0152 C.1     1  LIG1       -0.0673
     12 C           2.3425    0.1146   -0.0381 C.1     1  LIG1       -0.1138
     13 H           3.3927    0.2938   -0.0498 H       1  LIG1        0.1232
@<TRIPOS>BOND
     1     9     8    1
     2    10     8    1
     3    13    12    1
     4     6     1    1
     5     2     1   ar
     6     2     8    1
     7     2     3   ar
     8    12    11    3
     9     1     5   ar
    10    11     3    1
    11     3     4   ar
    12     5     4   ar
    13     4     7    1
