@<TRIPOS>MOLECULE
mol_data/opt/m06hf/geoms/mol2/5he5he5he5he-.out
 46 49 0 0 0
SMALL
GASTEIGER

@<TRIPOS>ATOM
      1 C          -1.5937   -1.5251    1.9319 C.ar    1  LIG1       -0.0018
      2 C          -0.8625   -1.7963    0.8175 C.ar    1  LIG1        0.0479
      3 C          -0.4334   -0.5828    0.1546 C.ar    1  LIG1        0.0606
      4 C          -0.8336    0.5598    0.8033 C.ar    1  LIG1        0.0449
      5 S          -1.7368    0.1714    2.2199 S.2     1  LIG1       -0.0930
      6 H          -2.0436   -2.2326    2.6082 H       1  LIG1        0.0712
      7 N          -0.5007   -3.0512    0.3324 N.pl3   1  LIG1       -0.3566
      8 H          -1.1265   -3.7993    0.5947 H       1  LIG1        0.1424
      9 H          -0.2888   -3.0537   -0.6573 H       1  LIG1        0.1424
     10 C           0.2788   -0.6137   -1.0883 C.1     1  LIG1       -0.0667
     11 C           0.8850   -0.6706   -2.1274 C.1     1  LIG1       -0.1138
     12 H           1.4042   -0.7081   -3.0573 H       1  LIG1        0.1232
     13 C          -0.5803    1.9475    0.4288 C.ar    1  LIG1        0.0496
     14 C           0.6100    2.5136    0.0487 C.ar    1  LIG1        0.0563
     15 C           0.4627    3.9313   -0.2123 C.ar    1  LIG1        0.0612
     16 C          -0.8076    4.4023    0.0093 C.ar    1  LIG1        0.0455
     17 S          -1.8569    3.1324    0.5170 S.2     1  LIG1       -0.0840
     18 N           1.8402    1.9007   -0.0294 N.pl3   1  LIG1       -0.3561
     19 H           1.8365    0.9171   -0.2594 H       1  LIG1        0.1424
     20 H           2.5417    2.4363   -0.5217 H       1  LIG1        0.1424
     21 C           1.5531    4.7179   -0.7067 C.1     1  LIG1       -0.0666
     22 C           2.4916    5.3548   -1.1122 C.1     1  LIG1       -0.1138
     23 H           3.3065    5.9247   -1.4952 H       1  LIG1        0.1232
     24 C          -1.3035    5.7661   -0.1393 C.ar    1  LIG1        0.0496
     25 C          -0.7330    6.9247    0.3246 C.ar    1  LIG1        0.0563
     26 C          -1.5550    8.0781    0.0172 C.ar    1  LIG1        0.0612
     27 C          -2.7254    7.7629   -0.6272 C.ar    1  LIG1        0.0455
     28 S          -2.8455    6.0653   -0.8949 S.2     1  LIG1       -0.0840
     29 N           0.4237    7.0533    1.0565 N.pl3   1  LIG1       -0.3561
     30 H           1.1421    6.3629    0.8940 H       1  LIG1        0.1424
     31 H           0.7646    8.0008    1.1412 H       1  LIG1        0.1424
     32 C          -1.1233    9.4077    0.3290 C.1     1  LIG1       -0.0666
     33 C          -0.7390   10.5128    0.6160 C.1     1  LIG1       -0.1138
     34 H          -0.4011   11.4979    0.8425 H       1  LIG1        0.1232
     35 C          -3.7868    8.6650   -1.0607 C.ar    1  LIG1        0.0490
     36 C          -4.3848    9.6687   -0.3386 C.ar    1  LIG1        0.0556
     37 C          -5.4612   10.2881   -1.0905 C.ar    1  LIG1        0.0529
     38 C          -5.6415    9.7282   -2.3184 C.ar    1  LIG1       -0.0065
     39 S          -4.5302    8.4659   -2.6264 S.2     1  LIG1       -0.0930
     40 H          -6.3714   10.0196   -3.0557 H       1  LIG1        0.0706
     41 N          -4.1250   10.0368    0.9596 N.pl3   1  LIG1       -0.3561
     42 H          -3.1751    9.9293    1.2847 H       1  LIG1        0.1424
     43 H          -4.5749   10.8942    1.2484 H       1  LIG1        0.1424
     44 C          -6.2308   11.3741   -0.5536 C.1     1  LIG1       -0.0673
     45 C          -6.8494   12.2837   -0.0675 C.1     1  LIG1       -0.1138
     46 H          -7.4117   13.0880    0.3471 H       1  LIG1        0.1232
@<TRIPOS>BOND
     1    12    11    1
     2    40    38    1
     3    39    38   ar
     4    39    35   ar
     5    38    37   ar
     6    11    10    3
     7    23    22    1
     8    22    21    3
     9    37    44    1
    10    37    36   ar
    11    10     3    1
    12    35    27    1
    13    35    36   ar
    14    28    27   ar
    15    28    24   ar
    16    21    15    1
    17     9     7    1
    18    27    26   ar
    19    44    45    3
    20    20    18    1
    21    36    41    1
    22    19    18    1
    23    15    16   ar
    24    15    14   ar
    25    24    16    1
    26    24    25   ar
    27    45    46    1
    28    18    14    1
    29    16    17   ar
    30    26    25   ar
    31    26    32    1
    32    14    13   ar
    33     3     4   ar
    34     3     2   ar
    35    25    29    1
    36    32    33    3
    37     7     8    1
    38     7     2    1
    39    13    17   ar
    40    13     4    1
    41    33    34    1
    42     4     5   ar
    43     2     1   ar
    44    30    29    1
    45    41    43    1
    46    41    42    1
    47    29    31    1
    48     1     5   ar
    49     1     6    1
