@<TRIPOS>MOLECULE
mol_data/opt/m06hf/geoms/mol2/5he5he-5he-.out
 35 37 0 0 0
SMALL
GASTEIGER

@<TRIPOS>ATOM
      1 C          -1.8631   -1.6978    1.2217 C.ar    1  LIG1       -0.0018
      2 C          -0.7953   -1.8737    0.3979 C.ar    1  LIG1        0.0479
      3 C          -0.2866   -0.6095   -0.0912 C.ar    1  LIG1        0.0606
      4 C          -0.9724    0.4761    0.3956 C.ar    1  LIG1        0.0449
      5 S          -2.2411   -0.0279    1.4521 S.2     1  LIG1       -0.0930
      6 H          -2.4420   -2.4610    1.7151 H       1  LIG1        0.0712
      7 N          -0.1874   -3.0784    0.0504 N.pl3   1  LIG1       -0.3566
      8 H          -0.7890   -3.8871    0.1209 H       1  LIG1        0.1424
      9 H           0.3031   -3.0399   -0.8341 H       1  LIG1        0.1424
     10 C           0.7910   -0.5407   -1.0335 C.1     1  LIG1       -0.0667
     11 C           1.7041   -0.5121   -1.8183 C.1     1  LIG1       -0.1138
     12 H           2.4978   -0.4747   -2.5286 H       1  LIG1        0.1232
     13 C          -0.7226    1.8907    0.1354 C.ar    1  LIG1        0.0496
     14 C           0.4772    2.5522    0.1948 C.ar    1  LIG1        0.0563
     15 C           0.3169    3.9640   -0.0873 C.ar    1  LIG1        0.0612
     16 C          -0.9844    4.3338   -0.3176 C.ar    1  LIG1        0.0455
     17 S          -2.0402    2.9769   -0.2125 S.2     1  LIG1       -0.0840
     18 N           1.7033    2.0278    0.5379 N.pl3   1  LIG1       -0.3561
     19 H           1.8562    1.0574    0.3014 H       1  LIG1        0.1424
     20 H           2.4867    2.6303    0.3266 H       1  LIG1        0.1424
     21 C           1.4443    4.8451   -0.1611 C.1     1  LIG1       -0.0666
     22 C           2.4126    5.5603   -0.2022 C.1     1  LIG1       -0.1138
     23 H           3.2651    6.1970   -0.2629 H       1  LIG1        0.1232
     24 C          -1.4984    5.6654   -0.6232 C.ar    1  LIG1        0.0490
     25 C          -1.2205    6.8415    0.0279 C.ar    1  LIG1        0.0556
     26 C          -1.9738    7.9458   -0.5373 C.ar    1  LIG1        0.0529
     27 C          -2.7843    7.5645   -1.5638 C.ar    1  LIG1       -0.0065
     28 S          -2.6644    5.8923   -1.8966 S.2     1  LIG1       -0.0930
     29 H          -3.4324    8.2029   -2.1415 H       1  LIG1        0.0706
     30 N          -0.4181    7.0178    1.1310 N.pl3   1  LIG1       -0.3561
     31 H           0.3787    6.4026    1.2143 H       1  LIG1        0.1424
     32 H          -0.2256    7.9841    1.3554 H       1  LIG1        0.1424
     33 C          -1.8449    9.2842   -0.0341 C.1     1  LIG1       -0.0673
     34 C          -1.6991   10.3890    0.4179 C.1     1  LIG1       -0.1138
     35 H          -1.5849   11.3735    0.8088 H       1  LIG1        0.1232
@<TRIPOS>BOND
     1    12    11    1
     2    29    27    1
     3    28    27   ar
     4    28    24   ar
     5    11    10    3
     6    27    26   ar
     7    10     3    1
     8     9     7    1
     9    24    16    1
    10    24    25   ar
    11    26    33    1
    12    26    25   ar
    13    16    17   ar
    14    16    15   ar
    15    23    22    1
    16    17    13   ar
    17    22    21    3
    18    21    15    1
    19     3     4   ar
    20     3     2   ar
    21    15    14   ar
    22    33    34    3
    23    25    30    1
    24     7     8    1
    25     7     2    1
    26    13    14   ar
    27    13     4    1
    28    14    18    1
    29    19    18    1
    30    20    18    1
    31     4     5   ar
    32     2     1   ar
    33    34    35    1
    34    30    31    1
    35    30    32    1
    36     1     5   ar
    37     1     6    1
