@<TRIPOS>MOLECULE
mol_data/opt/m06hf/geoms/mol2/5he5he5he-5he.out
 46 49 0 0 0
SMALL
GASTEIGER

@<TRIPOS>ATOM
      1 C          -1.6100   -1.5325    1.9073 C.ar    1  LIG1       -0.0018
      2 C          -0.8710   -1.7998    0.7971 C.ar    1  LIG1        0.0479
      3 C          -0.4367   -0.5839    0.1420 C.ar    1  LIG1        0.0606
      4 C          -0.8411    0.5563    0.7921 C.ar    1  LIG1        0.0449
      5 S          -1.7545    0.1629    2.2008 S.2     1  LIG1       -0.0930
      6 H          -2.0650   -2.2425    2.5776 H       1  LIG1        0.0712
      7 N          -0.5062   -3.0529    0.3099 N.pl3   1  LIG1       -0.3566
      8 H          -1.1341   -3.8019    0.5648 H       1  LIG1        0.1424
      9 H          -0.2871   -3.0517   -0.6783 H       1  LIG1        0.1424
     10 C           0.2843   -0.6104   -1.0959 C.1     1  LIG1       -0.0667
     11 C           0.8978   -0.6636   -2.1309 C.1     1  LIG1       -0.1138
     12 H           1.4235   -0.6974   -3.0574 H       1  LIG1        0.1232
     13 C          -0.5847    1.9453    0.4247 C.ar    1  LIG1        0.0496
     14 C           0.6085    2.5124    0.0553 C.ar    1  LIG1        0.0563
     15 C           0.4636    3.9312   -0.2013 C.ar    1  LIG1        0.0612
     16 C          -0.8081    4.4018    0.0130 C.ar    1  LIG1        0.0455
     17 S          -1.8615    3.1304    0.5083 S.2     1  LIG1       -0.0840
     18 N           1.8391    1.8994   -0.0162 N.pl3   1  LIG1       -0.3561
     19 H           1.8367    0.9166   -0.2499 H       1  LIG1        0.1424
     20 H           2.5443    2.4365   -0.5013 H       1  LIG1        0.1424
     21 C           1.5578    4.7191   -0.6847 C.1     1  LIG1       -0.0666
     22 C           2.4995    5.3573   -1.0810 C.1     1  LIG1       -0.1138
     23 H           3.3174    5.9283   -1.4557 H       1  LIG1        0.1232
     24 C          -1.3024    5.7664   -0.1341 C.ar    1  LIG1        0.0496
     25 C          -0.7348    6.9230    0.3383 C.ar    1  LIG1        0.0563
     26 C          -1.5541    8.0779    0.0293 C.ar    1  LIG1        0.0612
     27 C          -2.7199    7.7656   -0.6248 C.ar    1  LIG1        0.0455
     28 S          -2.8388    6.0690   -0.8996 S.2     1  LIG1       -0.0840
     29 N           0.4166    7.0483    1.0790 N.pl3   1  LIG1       -0.3561
     30 H           1.1359    6.3583    0.9192 H       1  LIG1        0.1424
     31 H           0.7572    7.9954    1.1698 H       1  LIG1        0.1424
     32 C          -1.1241    9.4061    0.3492 C.1     1  LIG1       -0.0666
     33 C          -0.7416   10.5099    0.6432 C.1     1  LIG1       -0.1138
     34 H          -0.4052   11.4941    0.8759 H       1  LIG1        0.1232
     35 C          -3.7777    8.6697   -1.0626 C.ar    1  LIG1        0.0490
     36 C          -4.3806    9.6710   -0.3412 C.ar    1  LIG1        0.0556
     37 C          -5.4512   10.2937   -1.0987 C.ar    1  LIG1        0.0529
     38 C          -5.6225    9.7385   -2.3300 C.ar    1  LIG1       -0.0065
     39 S          -4.5097    8.4767   -2.6344 S.2     1  LIG1       -0.0930
     40 H          -6.3468   10.0332   -3.0716 H       1  LIG1        0.0706
     41 N          -4.1302   10.0340    0.9602 N.pl3   1  LIG1       -0.3561
     42 H          -3.1828    9.9249    1.2919 H       1  LIG1        0.1424
     43 H          -4.5819   10.8906    1.2489 H       1  LIG1        0.1424
     44 C          -6.2241   11.3780   -0.5634 C.1     1  LIG1       -0.0673
     45 C          -6.8461   12.2860   -0.0784 C.1     1  LIG1       -0.1138
     46 H          -7.4111   13.0889    0.3351 H       1  LIG1        0.1232
@<TRIPOS>BOND
     1    40    38    1
     2    12    11    1
     3    39    38   ar
     4    39    35   ar
     5    38    37   ar
     6    11    10    3
     7    23    22    1
     8    37    44    1
     9    37    36   ar
    10    10     3    1
    11    22    21    3
    12    35    27    1
    13    35    36   ar
    14    28    27   ar
    15    28    24   ar
    16    21    15    1
    17     9     7    1
    18    27    26   ar
    19    44    45    3
    20    20    18    1
    21    36    41    1
    22    19    18    1
    23    15    16   ar
    24    15    14   ar
    25    24    16    1
    26    24    25   ar
    27    45    46    1
    28    18    14    1
    29    16    17   ar
    30    26    25   ar
    31    26    32    1
    32    14    13   ar
    33     3     4   ar
    34     3     2   ar
    35     7     8    1
    36     7     2    1
    37    25    29    1
    38    32    33    3
    39    13    17   ar
    40    13     4    1
    41    33    34    1
    42     4     5   ar
    43     2     1   ar
    44    30    29    1
    45    41    43    1
    46    41    42    1
    47    29    31    1
    48     1     5   ar
    49     1     6    1
