@<TRIPOS>MOLECULE
mol_data/opt/m06hf/geoms/mol2/5he5he-5he-5he.out
 46 49 0 0 0
SMALL
GASTEIGER

@<TRIPOS>ATOM
      1 C          -1.5853   -1.5360    1.9160 C.ar    1  LIG1       -0.0018
      2 C          -0.8588   -1.8010    0.7970 C.ar    1  LIG1        0.0479
      3 C          -0.4325   -0.5838    0.1391 C.ar    1  LIG1        0.0606
      4 C          -0.8299    0.5552    0.7958 C.ar    1  LIG1        0.0449
      5 S          -1.7272    0.1589    2.2140 S.2     1  LIG1       -0.0930
      6 H          -2.0324   -2.2473    2.5901 H       1  LIG1        0.0712
      7 N          -0.4991   -3.0531    0.3034 N.pl3   1  LIG1       -0.3566
      8 H          -1.1238   -3.8027    0.5641 H       1  LIG1        0.1424
      9 H          -0.2913   -3.0501   -0.6872 H       1  LIG1        0.1424
     10 C           0.2745   -0.6078   -1.1069 C.1     1  LIG1       -0.0667
     11 C           0.8764   -0.6589   -2.1488 C.1     1  LIG1       -0.1138
     12 H           1.3917   -0.6912   -3.0811 H       1  LIG1        0.1232
     13 C          -0.5781    1.9450    0.4281 C.ar    1  LIG1        0.0496
     14 C           0.6106    2.5131    0.0461 C.ar    1  LIG1        0.0563
     15 C           0.4622    3.9323   -0.2063 C.ar    1  LIG1        0.0612
     16 C          -0.8071    4.4020    0.0233 C.ar    1  LIG1        0.0455
     17 S          -1.8543    3.1294    0.5282 S.2     1  LIG1       -0.0840
     18 N           1.8405    1.9007   -0.0405 N.pl3   1  LIG1       -0.3561
     19 H           1.8358    0.9184   -0.2760 H       1  LIG1        0.1424
     20 H           2.5399    2.4390   -0.5327 H       1  LIG1        0.1424
     21 C           1.5506    4.7216   -0.7008 C.1     1  LIG1       -0.0666
     22 C           2.4875    5.3607   -1.1067 C.1     1  LIG1       -0.1138
     23 H           3.3008    5.9327   -1.4899 H       1  LIG1        0.1232
     24 C          -1.3036    5.7666   -0.1157 C.ar    1  LIG1        0.0496
     25 C          -0.7311    6.9227    0.3522 C.ar    1  LIG1        0.0563
     26 C          -1.5543    8.0778    0.0548 C.ar    1  LIG1        0.0612
     27 C          -2.7275    7.7662   -0.5865 C.ar    1  LIG1        0.0455
     28 S          -2.8487    6.0701   -0.8631 S.2     1  LIG1       -0.0840
     29 N           0.4287    7.0472    1.0800 N.pl3   1  LIG1       -0.3561
     30 H           1.1464    6.3577    0.9107 H       1  LIG1        0.1424
     31 H           0.7700    7.9942    1.1686 H       1  LIG1        0.1424
     32 C          -1.1212    9.4056    0.3722 C.1     1  LIG1       -0.0666
     33 C          -0.7357   10.5091    0.6636 C.1     1  LIG1       -0.1138
     34 H          -0.3968   11.4929    0.8942 H       1  LIG1        0.1232
     35 C          -3.7906    8.6706   -1.0105 C.ar    1  LIG1        0.0490
     36 C          -4.3855    9.6703   -0.2804 C.ar    1  LIG1        0.0556
     37 C          -5.4651   10.2939   -1.0243 C.ar    1  LIG1        0.0529
     38 C          -5.6505    9.7408   -2.2545 C.ar    1  LIG1       -0.0065
     39 S          -4.5405    8.4802   -2.5742 S.2     1  LIG1       -0.0930
     40 H          -6.3835   10.0364   -2.9871 H       1  LIG1        0.0706
     41 N          -4.1202   10.0312    1.0188 N.pl3   1  LIG1       -0.3561
     42 H          -3.1690    9.9219    1.3393 H       1  LIG1        0.1424
     43 H          -4.5689   10.8871    1.3142 H       1  LIG1        0.1424
     44 C          -6.2324   11.3769   -0.4781 C.1     1  LIG1       -0.0673
     45 C          -6.8489   12.2839    0.0156 C.1     1  LIG1       -0.1138
     46 H          -7.4094   13.0859    0.4370 H       1  LIG1        0.1232
@<TRIPOS>BOND
     1    12    11    1
     2    40    38    1
     3    39    38   ar
     4    39    35   ar
     5    38    37   ar
     6    11    10    3
     7    23    22    1
     8    10     3    1
     9    22    21    3
    10    37    44    1
    11    37    36   ar
    12    35    27    1
    13    35    36   ar
    14    28    27   ar
    15    28    24   ar
    16    21    15    1
    17     9     7    1
    18    27    26   ar
    19    20    18    1
    20    44    45    3
    21    36    41    1
    22    19    18    1
    23    15    16   ar
    24    15    14   ar
    25    24    16    1
    26    24    25   ar
    27    18    14    1
    28    45    46    1
    29    16    17   ar
    30    14    13   ar
    31    26    25   ar
    32    26    32    1
    33     3     4   ar
    34     3     2   ar
    35     7     8    1
    36     7     2    1
    37    25    29    1
    38    32    33    3
    39    13    17   ar
    40    13     4    1
    41    33    34    1
    42     4     5   ar
    43     2     1   ar
    44    30    29    1
    45    41    43    1
    46    41    42    1
    47    29    31    1
    48     1     5   ar
    49     1     6    1
