@<TRIPOS>MOLECULE
mol_data/opt/m06hf/geoms/mol2/5he5he5he.out
 35 37 0 0 0
SMALL
GASTEIGER

@<TRIPOS>ATOM
      1 C          -1.8816   -1.6891    1.2237 C.ar    1  LIG1       -0.0018
      2 C          -0.8044   -1.8707    0.4135 C.ar    1  LIG1        0.0479
      3 C          -0.2890   -0.6099   -0.0773 C.ar    1  LIG1        0.0606
      4 C          -0.9796    0.4792    0.3949 C.ar    1  LIG1        0.0449
      5 S          -2.2606   -0.0175    1.4400 S.2     1  LIG1       -0.0930
      6 H          -2.4668   -2.4489    1.7148 H       1  LIG1        0.0712
      7 N          -0.1935   -3.0780    0.0803 N.pl3   1  LIG1       -0.3566
      8 H          -0.7964   -3.8857    0.1488 H       1  LIG1        0.1424
      9 H           0.3071   -3.0452   -0.7989 H       1  LIG1        0.1424
     10 C           0.7994   -0.5475   -1.0075 C.1     1  LIG1       -0.0667
     11 C           1.7214   -0.5241   -1.7820 C.1     1  LIG1       -0.1138
     12 H           2.5232   -0.4916   -2.4833 H       1  LIG1        0.1232
     13 C          -0.7258    1.8920    0.1290 C.ar    1  LIG1        0.0496
     14 C           0.4737    2.5530    0.1980 C.ar    1  LIG1        0.0563
     15 C           0.3177    3.9632   -0.0948 C.ar    1  LIG1        0.0612
     16 C          -0.9806    4.3324   -0.3424 C.ar    1  LIG1        0.0455
     17 S          -2.0385    2.9768   -0.2408 S.2     1  LIG1       -0.0840
     18 N           1.6954    2.0300    0.5586 N.pl3   1  LIG1       -0.3561
     19 H           1.8503    1.0581    0.3301 H       1  LIG1        0.1424
     20 H           2.4816    2.6306    0.3524 H       1  LIG1        0.1424
     21 C           1.4465    4.8430   -0.1611 C.1     1  LIG1       -0.0666
     22 C           2.4155    5.5576   -0.1957 C.1     1  LIG1       -0.1138
     23 H           3.2689    6.1935   -0.2508 H       1  LIG1        0.1232
     24 C          -1.4900    5.6623   -0.6626 C.ar    1  LIG1        0.0490
     25 C          -1.2189    6.8424   -0.0159 C.ar    1  LIG1        0.0556
     26 C          -1.9646    7.9435   -0.5971 C.ar    1  LIG1        0.0529
     27 C          -2.7633    7.5561   -1.6305 C.ar    1  LIG1       -0.0065
     28 S          -2.6407    5.8817   -1.9511 S.2     1  LIG1       -0.0930
     29 H          -3.4042    8.1913   -2.2198 H       1  LIG1        0.0706
     30 N          -0.4294    7.0252    1.0955 N.pl3   1  LIG1       -0.3561
     31 H           0.3667    6.4108    1.1913 H       1  LIG1        0.1424
     32 H          -0.2393    7.9929    1.3162 H       1  LIG1        0.1424
     33 C          -1.8405    9.2850   -0.1011 C.1     1  LIG1       -0.0673
     34 C          -1.6994   10.3927    0.3454 C.1     1  LIG1       -0.1138
     35 H          -1.5892   11.3797    0.7312 H       1  LIG1        0.1232
@<TRIPOS>BOND
     1    12    11    1
     2    29    27    1
     3    28    27   ar
     4    28    24   ar
     5    11    10    3
     6    27    26   ar
     7    10     3    1
     8     9     7    1
     9    24    16    1
    10    24    25   ar
    11    26    33    1
    12    26    25   ar
    13    16    17   ar
    14    16    15   ar
    15    23    22    1
    16    17    13   ar
    17    22    21    3
    18    21    15    1
    19    33    34    3
    20    15    14   ar
    21     3     4   ar
    22     3     2   ar
    23    25    30    1
    24     7     8    1
    25     7     2    1
    26    13    14   ar
    27    13     4    1
    28    14    18    1
    29    19    18    1
    30    34    35    1
    31    20    18    1
    32     4     5   ar
    33     2     1   ar
    34    30    31    1
    35    30    32    1
    36     1     5   ar
    37     1     6    1
