@<TRIPOS>MOLECULE
mol_data/opt/m06hf/geoms/mol2/5he5he-.out
 24 25 0 0 0
SMALL
GASTEIGER

@<TRIPOS>ATOM
      1 C          -2.0822   -1.7057   -0.6699 C.ar    1  LIG1       -0.0018
      2 C          -0.7886   -1.8236   -0.2663 C.ar    1  LIG1        0.0479
      3 C          -0.2280   -0.5423    0.1137 C.ar    1  LIG1        0.0606
      4 C          -1.1157    0.4965   -0.0241 C.ar    1  LIG1        0.0449
      5 S          -2.6340   -0.0691   -0.6181 S.2     1  LIG1       -0.0930
      6 H          -2.7480   -2.4970   -0.9706 H       1  LIG1        0.0712
      7 N          -0.0530   -2.9973   -0.1340 N.pl3   1  LIG1       -0.3566
      8 H          -0.3229   -3.7445   -0.7568 H       1  LIG1        0.1424
      9 H           0.9470   -2.8477   -0.1049 H       1  LIG1        0.1424
     10 C           1.1058   -0.4254    0.6249 C.1     1  LIG1       -0.0667
     11 C           2.2365   -0.3577    1.0298 C.1     1  LIG1       -0.1138
     12 H           3.2282   -0.2708    1.4087 H       1  LIG1        0.1232
     13 C          -0.8868    1.9158    0.2298 C.ar    1  LIG1        0.0489
     14 C           0.1735    2.6779   -0.1911 C.ar    1  LIG1        0.0556
     15 C           0.0153    4.0677    0.1945 C.ar    1  LIG1        0.0529
     16 C          -1.1397    4.2962    0.8798 C.ar    1  LIG1       -0.0065
     17 S          -2.0580    2.8696    1.0982 S.2     1  LIG1       -0.0930
     18 H          -1.4768    5.2421    1.2710 H       1  LIG1        0.0706
     19 N           1.2828    2.2604   -0.8846 N.pl3   1  LIG1       -0.3561
     20 H           1.2582    1.3280   -1.2691 H       1  LIG1        0.1424
     21 H           1.7311    2.9638   -1.4536 H       1  LIG1        0.1424
     22 C           0.9873    5.0655   -0.1535 C.1     1  LIG1       -0.0673
     23 C           1.8199    5.8712   -0.4766 C.1     1  LIG1       -0.1138
     24 H           2.5519    6.5958   -0.7502 H       1  LIG1        0.1232
@<TRIPOS>BOND
     1    21    19    1
     2    20    19    1
     3     6     1    1
     4    19    14    1
     5     8     7    1
     6    24    23    1
     7     1     5   ar
     8     1     2   ar
     9     5     4   ar
    10    23    22    3
    11     2     7    1
    12     2     3   ar
    13    14    15   ar
    14    14    13   ar
    15    22    15    1
    16     7     9    1
    17     4     3   ar
    18     4    13    1
    19     3    10    1
    20    15    16   ar
    21    13    17   ar
    22    10    11    3
    23    16    17   ar
    24    16    18    1
    25    11    12    1
