@<TRIPOS>MOLECULE
mol_data/opt/m06hf/geoms/mol2/5he5he5he-.out
 35 37 0 0 0
SMALL
GASTEIGER

@<TRIPOS>ATOM
      1 C          -1.8850   -1.6937    1.2081 C.ar    1  LIG1       -0.0018
      2 C          -0.8069   -1.8724    0.3983 C.ar    1  LIG1        0.0479
      3 C          -0.2905   -0.6098   -0.0868 C.ar    1  LIG1        0.0606
      4 C          -0.9810    0.4776    0.3892 C.ar    1  LIG1        0.0449
      5 S          -2.2634   -0.0229    1.4308 S.2     1  LIG1       -0.0930
      6 H          -2.4711   -2.4552    1.6954 H       1  LIG1        0.0712
      7 N          -0.1963   -3.0786    0.0607 N.pl3   1  LIG1       -0.3566
      8 H          -0.7996   -3.8864    0.1253 H       1  LIG1        0.1424
      9 H           0.3052   -3.0425   -0.8177 H       1  LIG1        0.1424
     10 C           0.7989   -0.5441   -1.0155 C.1     1  LIG1       -0.0667
     11 C           1.7218   -0.5180   -1.7889 C.1     1  LIG1       -0.1138
     12 H           2.5244   -0.4830   -2.4892 H       1  LIG1        0.1232
     13 C          -0.7263    1.8913    0.1294 C.ar    1  LIG1        0.0496
     14 C           0.4734    2.5515    0.2025 C.ar    1  LIG1        0.0563
     15 C           0.3184    3.9629   -0.0846 C.ar    1  LIG1        0.0612
     16 C          -0.9794    4.3338   -0.3322 C.ar    1  LIG1        0.0455
     17 S          -2.0381    2.9783   -0.2373 S.2     1  LIG1       -0.0840
     18 N           1.6945    2.0264    0.5623 N.pl3   1  LIG1       -0.3561
     19 H           1.8491    1.0554    0.3299 H       1  LIG1        0.1424
     20 H           2.4812    2.6275    0.3594 H       1  LIG1        0.1424
     21 C           1.4477    4.8425   -0.1461 C.1     1  LIG1       -0.0666
     22 C           2.4170    5.5568   -0.1766 C.1     1  LIG1       -0.1138
     23 H           3.2708    6.1926   -0.2281 H       1  LIG1        0.1232
     24 C          -1.4879    5.6652   -0.6474 C.ar    1  LIG1        0.0490
     25 C          -1.2169    6.8425    0.0045 C.ar    1  LIG1        0.0556
     26 C          -1.9615    7.9464   -0.5729 C.ar    1  LIG1        0.0529
     27 C          -2.7593    7.5637   -1.6088 C.ar    1  LIG1       -0.0065
     28 S          -2.6370    5.8906   -1.9363 S.2     1  LIG1       -0.0930
     29 H          -3.3992    8.2016   -2.1962 H       1  LIG1        0.0706
     30 N          -0.4286    7.0203    1.1175 N.pl3   1  LIG1       -0.3561
     31 H           0.3671    6.4052    1.2117 H       1  LIG1        0.1424
     32 H          -0.2383    7.9870    1.3425 H       1  LIG1        0.1424
     33 C          -1.8374    9.2857   -0.0711 C.1     1  LIG1       -0.0673
     34 C          -1.6963   10.3915    0.3801 C.1     1  LIG1       -0.1138
     35 H          -1.5860   11.3768    0.7702 H       1  LIG1        0.1232
@<TRIPOS>BOND
     1    12    11    1
     2    29    27    1
     3    28    27   ar
     4    28    24   ar
     5    11    10    3
     6    27    26   ar
     7    10     3    1
     8     9     7    1
     9    24    16    1
    10    24    25   ar
    11    26    33    1
    12    26    25   ar
    13    16    17   ar
    14    16    15   ar
    15    17    13   ar
    16    23    22    1
    17    22    21    3
    18    21    15    1
    19     3     4   ar
    20     3     2   ar
    21    15    14   ar
    22    33    34    3
    23    25    30    1
    24     7     8    1
    25     7     2    1
    26    13    14   ar
    27    13     4    1
    28    14    18    1
    29    19    18    1
    30    20    18    1
    31    34    35    1
    32     4     5   ar
    33     2     1   ar
    34    30    31    1
    35    30    32    1
    36     1     5   ar
    37     1     6    1
