@<TRIPOS>MOLECULE
mol_data/opt/m06hf/geoms/mol2/5he5he-5he5he-.out
 46 49 0 0 0
SMALL
GASTEIGER

@<TRIPOS>ATOM
      1 C          -1.5765   -1.5298    1.9361 C.ar    1  LIG1       -0.0018
      2 C          -0.8563   -1.7985    0.8140 C.ar    1  LIG1        0.0479
      3 C          -0.4333   -0.5836    0.1500 C.ar    1  LIG1        0.0606
      4 C          -0.8268    0.5576    0.8053 C.ar    1  LIG1        0.0449
      5 S          -1.7162    0.1660    2.2297 S.2     1  LIG1       -0.0930
      6 H          -2.0200   -2.2389    2.6150 H       1  LIG1        0.0712
      7 N          -0.4996   -3.0523    0.3224 N.pl3   1  LIG1       -0.3566
      8 H          -1.1230   -3.8010    0.5889 H       1  LIG1        0.1424
      9 H          -0.2973   -3.0525   -0.6694 H       1  LIG1        0.1424
     10 C           0.2668   -0.6116   -1.0999 C.1     1  LIG1       -0.0667
     11 C           0.8629   -0.6662   -2.1449 C.1     1  LIG1       -0.1138
     12 H           1.3730   -0.7015   -3.0800 H       1  LIG1        0.1232
     13 C          -0.5767    1.9461    0.4317 C.ar    1  LIG1        0.0496
     14 C           0.6100    2.5128    0.0415 C.ar    1  LIG1        0.0563
     15 C           0.4606    3.9312   -0.2147 C.ar    1  LIG1        0.0612
     16 C          -0.8074    4.4020    0.0204 C.ar    1  LIG1        0.0455
     17 S          -1.8521    3.1312    0.5352 S.2     1  LIG1       -0.0840
     18 N           1.8393    1.8998   -0.0501 N.pl3   1  LIG1       -0.3561
     19 H           1.8330    0.9167   -0.2825 H       1  LIG1        0.1424
     20 H           2.5361    2.4364   -0.5477 H       1  LIG1        0.1424
     21 C           1.5464    4.7187   -0.7177 C.1     1  LIG1       -0.0666
     22 C           2.4812    5.3563   -1.1307 C.1     1  LIG1       -0.1138
     23 H           3.2924    5.9269   -1.5202 H       1  LIG1        0.1232
     24 C          -1.3042    5.7663   -0.1201 C.ar    1  LIG1        0.0496
     25 C          -0.7289    6.9236    0.3411 C.ar    1  LIG1        0.0563
     26 C          -1.5535    8.0780    0.0446 C.ar    1  LIG1        0.0612
     27 C          -2.7302    7.7647   -0.5893 C.ar    1  LIG1        0.0455
     28 S          -2.8534    6.0678   -0.8599 S.2     1  LIG1       -0.0840
     29 N           0.4349    7.0501    1.0620 N.pl3   1  LIG1       -0.3561
     30 H           1.1514    6.3599    0.8910 H       1  LIG1        0.1424
     31 H           0.7769    7.9973    1.1458 H       1  LIG1        0.1424
     32 C          -1.1184    9.4067    0.3554 C.1     1  LIG1       -0.0666
     33 C          -0.7310   10.5110    0.6413 C.1     1  LIG1       -0.1138
     34 H          -0.3907   11.4954    0.8669 H       1  LIG1        0.1232
     35 C          -3.7955    8.6681   -1.0102 C.ar    1  LIG1        0.0490
     36 C          -4.3861    9.6702   -0.2799 C.ar    1  LIG1        0.0556
     37 C          -5.4697   10.2917   -1.0198 C.ar    1  LIG1        0.0529
     38 C          -5.6620    9.7348   -2.2472 C.ar    1  LIG1       -0.0065
     39 S          -4.5541    8.4730   -2.5691 S.2     1  LIG1       -0.0930
     40 H          -6.3990   10.0283   -2.9768 H       1  LIG1        0.0706
     41 N          -4.1136   10.0351    1.0166 N.pl3   1  LIG1       -0.3561
     42 H          -3.1607    9.9266    1.3322 H       1  LIG1        0.1424
     43 H          -4.5605   10.8919    1.3118 H       1  LIG1        0.1424
     44 C          -6.2337   11.3766   -0.4728 C.1     1  LIG1       -0.0673
     45 C          -6.8473   12.2852    0.0215 C.1     1  LIG1       -0.1138
     46 H          -7.4053   13.0887    0.4435 H       1  LIG1        0.1232
@<TRIPOS>BOND
     1    12    11    1
     2    40    38    1
     3    39    38   ar
     4    39    35   ar
     5    38    37   ar
     6    11    10    3
     7    23    22    1
     8    22    21    3
     9    10     3    1
    10    37    44    1
    11    37    36   ar
    12    35    27    1
    13    35    36   ar
    14    28    27   ar
    15    28    24   ar
    16    21    15    1
    17     9     7    1
    18    27    26   ar
    19    20    18    1
    20    44    45    3
    21    19    18    1
    22    36    41    1
    23    15    16   ar
    24    15    14   ar
    25    24    16    1
    26    24    25   ar
    27    18    14    1
    28    16    17   ar
    29    45    46    1
    30    14    13   ar
    31    26    25   ar
    32    26    32    1
    33     3     4   ar
    34     3     2   ar
    35     7     8    1
    36     7     2    1
    37    25    29    1
    38    32    33    3
    39    13    17   ar
    40    13     4    1
    41    33    34    1
    42     4     5   ar
    43     2     1   ar
    44    30    29    1
    45    41    43    1
    46    41    42    1
    47    29    31    1
    48     1     5   ar
    49     1     6    1
