@<TRIPOS>MOLECULE
mol_data/opt/m06hf/geoms/mol2/5he5he-5he.out
 35 37 0 0 0
SMALL
GASTEIGER

@<TRIPOS>ATOM
      1 C          -1.8632   -1.6924    1.2367 C.ar    1  LIG1       -0.0018
      2 C          -0.7962   -1.8717    0.4126 C.ar    1  LIG1        0.0479
      3 C          -0.2876   -0.6096   -0.0819 C.ar    1  LIG1        0.0606
      4 C          -0.9727    0.4781    0.4014 C.ar    1  LIG1        0.0449
      5 S          -2.2403   -0.0215    1.4614 S.2     1  LIG1       -0.0930
      6 H          -2.4419   -2.4536    1.7335 H       1  LIG1        0.0712
      7 N          -0.1890   -3.0780    0.0692 N.pl3   1  LIG1       -0.3566
      8 H          -0.7906   -3.8862    0.1435 H       1  LIG1        0.1424
      9 H           0.3005   -3.0431   -0.8161 H       1  LIG1        0.1424
     10 C           0.7890   -0.5447   -1.0255 C.1     1  LIG1       -0.0667
     11 C           1.7012   -0.5192   -1.8114 C.1     1  LIG1       -0.1138
     12 H           2.4942   -0.4847   -2.5226 H       1  LIG1        0.1232
     13 C          -0.7229    1.8915    0.1353 C.ar    1  LIG1        0.0496
     14 C           0.4770    2.5531    0.1908 C.ar    1  LIG1        0.0563
     15 C           0.3167    3.9638   -0.0969 C.ar    1  LIG1        0.0612
     16 C          -0.9848    4.3329   -0.3275 C.ar    1  LIG1        0.0455
     17 S          -2.0407    2.9766   -0.2156 S.2     1  LIG1       -0.0840
     18 N           1.7034    2.0299    0.5349 N.pl3   1  LIG1       -0.3561
     19 H           1.8558    1.0585    0.3023 H       1  LIG1        0.1424
     20 H           2.4867    2.6312    0.3202 H       1  LIG1        0.1424
     21 C           1.4441    4.8443   -0.1755 C.1     1  LIG1       -0.0666
     22 C           2.4123    5.5595   -0.2206 C.1     1  LIG1       -0.1138
     23 H           3.2646    6.1960   -0.2850 H       1  LIG1        0.1232
     24 C          -1.4988    5.6632   -0.6383 C.ar    1  LIG1        0.0490
     25 C          -1.2201    6.8420    0.0076 C.ar    1  LIG1        0.0556
     26 C          -1.9736    7.9441   -0.5617 C.ar    1  LIG1        0.0529
     27 C          -2.7850    7.5585   -1.5860 C.ar    1  LIG1       -0.0065
     28 S          -2.6656    5.8850   -1.9118 S.2     1  LIG1       -0.0930
     29 H          -3.4335    8.1947   -2.1658 H       1  LIG1        0.0706
     30 N          -0.4169    7.0228    1.1094 N.pl3   1  LIG1       -0.3561
     31 H           0.3807    6.4086    1.1939 H       1  LIG1        0.1424
     32 H          -0.2246    7.9900    1.3299 H       1  LIG1        0.1424
     33 C          -1.8440    9.2845   -0.0643 C.1     1  LIG1       -0.0673
     34 C          -1.6979   10.3913    0.3828 C.1     1  LIG1       -0.1138
     35 H          -1.5833   11.3774    0.7694 H       1  LIG1        0.1232
@<TRIPOS>BOND
     1    12    11    1
     2    29    27    1
     3    28    27   ar
     4    28    24   ar
     5    11    10    3
     6    27    26   ar
     7    10     3    1
     8     9     7    1
     9    24    16    1
    10    24    25   ar
    11    26    33    1
    12    26    25   ar
    13    16    17   ar
    14    16    15   ar
    15    23    22    1
    16    22    21    3
    17    17    13   ar
    18    21    15    1
    19    15    14   ar
    20     3     4   ar
    21     3     2   ar
    22    33    34    3
    23    25    30    1
    24     7     8    1
    25     7     2    1
    26    13    14   ar
    27    13     4    1
    28    14    18    1
    29    19    18    1
    30    20    18    1
    31    34    35    1
    32     4     5   ar
    33     2     1   ar
    34    30    31    1
    35    30    32    1
    36     1     5   ar
    37     1     6    1
