@<TRIPOS>MOLECULE
mol_data/opt/m06hf/geoms/mol2/5he5he5he5he.out
 46 49 0 0 0
SMALL
GASTEIGER

@<TRIPOS>ATOM
      1 C          -1.5896   -1.5273    1.9294 C.ar    1  LIG1       -0.0018
      2 C          -0.8612   -1.7973    0.8128 C.ar    1  LIG1        0.0479
      3 C          -0.4336   -0.5831    0.1504 C.ar    1  LIG1        0.0606
      4 C          -0.8319    0.5588    0.8014 C.ar    1  LIG1        0.0449
      5 S          -1.7316    0.1688    2.2198 S.2     1  LIG1       -0.0930
      6 H          -2.0379   -2.2356    2.6058 H       1  LIG1        0.0712
      7 N          -0.5008   -3.0517    0.3253 N.pl3   1  LIG1       -0.3566
      8 H          -1.1261   -3.8001    0.5882 H       1  LIG1        0.1424
      9 H          -0.2914   -3.0530   -0.6649 H       1  LIG1        0.1424
     10 C           0.2756   -0.6126   -1.0944 C.1     1  LIG1       -0.0667
     11 C           0.8792   -0.6684   -2.1350 C.1     1  LIG1       -0.1138
     12 H           1.3961   -0.7049   -3.0663 H       1  LIG1        0.1232
     13 C          -0.5793    1.9469    0.4280 C.ar    1  LIG1        0.0496
     14 C           0.6101    2.5132    0.0456 C.ar    1  LIG1        0.0563
     15 C           0.4625    3.9313   -0.2134 C.ar    1  LIG1        0.0612
     16 C          -0.8073    4.4022    0.0120 C.ar    1  LIG1        0.0455
     17 S          -1.8555    3.1319    0.5207 S.2     1  LIG1       -0.0840
     18 N           1.8401    1.9003   -0.0363 N.pl3   1  LIG1       -0.3561
     19 H           1.8357    0.9169   -0.2674 H       1  LIG1        0.1424
     20 H           2.5405    2.4363   -0.5295 H       1  LIG1        0.1424
     21 C           1.5518    4.7183   -0.7094 C.1     1  LIG1       -0.0666
     22 C           2.4894    5.3555   -1.1164 C.1     1  LIG1       -0.1138
     23 H           3.3034    5.9258   -1.5007 H       1  LIG1        0.1232
     24 C          -1.3033    5.7663   -0.1338 C.ar    1  LIG1        0.0496
     25 C          -0.7314    6.9242    0.3301 C.ar    1  LIG1        0.0563
     26 C          -1.5539    8.0781    0.0262 C.ar    1  LIG1        0.0612
     27 C          -2.7260    7.7639   -0.6158 C.ar    1  LIG1        0.0455
     28 S          -2.8470    6.0667   -0.8853 S.2     1  LIG1       -0.0840
     29 N           0.4271    7.0517    1.0594 N.pl3   1  LIG1       -0.3561
     30 H           1.1449    6.3614    0.8943 H       1  LIG1        0.1424
     31 H           0.7683    7.9990    1.1445 H       1  LIG1        0.1424
     32 C          -1.1212    9.4073    0.3386 C.1     1  LIG1       -0.0666
     33 C          -0.7360   10.5120    0.6259 C.1     1  LIG1       -0.1138
     34 H          -0.3975   11.4967    0.8528 H       1  LIG1        0.1232
     35 C          -3.7883    8.6667   -1.0456 C.ar    1  LIG1        0.0490
     36 C          -4.3843    9.6696   -0.3208 C.ar    1  LIG1        0.0556
     37 C          -5.4625   10.2901   -1.0694 C.ar    1  LIG1        0.0529
     38 C          -5.6458    9.7317   -2.2975 C.ar    1  LIG1       -0.0065
     39 S          -4.5354    8.4697   -2.6097 S.2     1  LIG1       -0.0930
     40 H          -6.3774   10.0243   -3.0327 H       1  LIG1        0.0706
     41 N          -4.1213   10.0361    0.9772 N.pl3   1  LIG1       -0.3561
     42 H          -3.1707    9.9281    1.2998 H       1  LIG1        0.1424
     43 H          -4.5704   10.8932    1.2681 H       1  LIG1        0.1424
     44 C          -6.2306   11.3756   -0.5292 C.1     1  LIG1       -0.0673
     45 C          -6.8478   12.2848   -0.0405 C.1     1  LIG1       -0.1138
     46 H          -7.4090   13.0887    0.3764 H       1  LIG1        0.1232
@<TRIPOS>BOND
     1    12    11    1
     2    40    38    1
     3    39    38   ar
     4    39    35   ar
     5    38    37   ar
     6    11    10    3
     7    23    22    1
     8    22    21    3
     9    10     3    1
    10    37    44    1
    11    37    36   ar
    12    35    27    1
    13    35    36   ar
    14    28    27   ar
    15    28    24   ar
    16    21    15    1
    17     9     7    1
    18    27    26   ar
    19    20    18    1
    20    44    45    3
    21    36    41    1
    22    19    18    1
    23    15    16   ar
    24    15    14   ar
    25    24    16    1
    26    24    25   ar
    27    45    46    1
    28    18    14    1
    29    16    17   ar
    30    26    25   ar
    31    26    32    1
    32    14    13   ar
    33     3     4   ar
    34     3     2   ar
    35     7     8    1
    36     7     2    1
    37    25    29    1
    38    32    33    3
    39    13    17   ar
    40    13     4    1
    41    33    34    1
    42     4     5   ar
    43     2     1   ar
    44    30    29    1
    45    41    43    1
    46    41    42    1
    47    29    31    1
    48     1     5   ar
    49     1     6    1
