@<TRIPOS>MOLECULE
mol_data/opt/m06hf/geoms/mol2/5he5he5he-5he-.out
 46 49 0 0 0
SMALL
GASTEIGER

@<TRIPOS>ATOM
      1 C          -1.6064   -1.5274    1.9196 C.ar    1  LIG1       -0.0018
      2 C          -0.8687   -1.7974    0.8092 C.ar    1  LIG1        0.0479
      3 C          -0.4354   -0.5832    0.1504 C.ar    1  LIG1        0.0606
      4 C          -0.8392    0.5587    0.7980 C.ar    1  LIG1        0.0449
      5 S          -1.7509    0.1688    2.2088 S.2     1  LIG1       -0.0930
      6 H          -2.0604   -2.2356    2.5923 H       1  LIG1        0.0712
      7 N          -0.5042   -3.0518    0.3249 N.pl3   1  LIG1       -0.3566
      8 H          -1.1316   -3.8002    0.5826 H       1  LIG1        0.1424
      9 H          -0.2865   -3.0532   -0.6636 H       1  LIG1        0.1424
     10 C           0.2841   -0.6128   -1.0884 C.1     1  LIG1       -0.0667
     11 C           0.8965   -0.6686   -2.1239 C.1     1  LIG1       -0.1138
     12 H           1.4212   -0.7051   -3.0508 H       1  LIG1        0.1232
     13 C          -0.5835    1.9468    0.4266 C.ar    1  LIG1        0.0496
     14 C           0.6091    2.5131    0.0542 C.ar    1  LIG1        0.0563
     15 C           0.4636    3.9312   -0.2060 C.ar    1  LIG1        0.0612
     16 C          -0.8080    4.4021    0.0086 C.ar    1  LIG1        0.0455
     17 S          -1.8605    3.1318    0.5086 S.2     1  LIG1       -0.0840
     18 N           1.8397    1.9001   -0.0173 N.pl3   1  LIG1       -0.3561
     19 H           1.8372    0.9168   -0.2485 H       1  LIG1        0.1424
     20 H           2.5442    2.4361   -0.5047 H       1  LIG1        0.1424
     21 C           1.5570    4.7181   -0.6930 C.1     1  LIG1       -0.0666
     22 C           2.4981    5.3553   -1.0921 C.1     1  LIG1       -0.1138
     23 H           3.3153    5.9255   -1.4696 H       1  LIG1        0.1232
     24 C          -1.3027    5.7661   -0.1414 C.ar    1  LIG1        0.0496
     25 C          -0.7348    6.9241    0.3272 C.ar    1  LIG1        0.0563
     26 C          -1.5548    8.0780    0.0163 C.ar    1  LIG1        0.0612
     27 C          -2.7214    7.7638   -0.6355 C.ar    1  LIG1        0.0455
     28 S          -2.8401    6.0665   -0.9058 S.2     1  LIG1       -0.0840
     29 N           0.4175    7.0517    1.0662 N.pl3   1  LIG1       -0.3561
     30 H           1.1368    6.3614    0.9072 H       1  LIG1        0.1424
     31 H           0.7581    7.9990    1.1540 H       1  LIG1        0.1424
     32 C          -1.1247    9.4072    0.3323 C.1     1  LIG1       -0.0666
     33 C          -0.7419   10.5119    0.6228 C.1     1  LIG1       -0.1138
     34 H          -0.4053   11.4967    0.8524 H       1  LIG1        0.1232
     35 C          -3.7800    8.6665   -1.0742 C.ar    1  LIG1        0.0490
     36 C          -4.3821    9.6695   -0.3545 C.ar    1  LIG1        0.0556
     37 C          -5.4540   10.2899   -1.1121 C.ar    1  LIG1        0.0529
     38 C          -5.6270    9.7314   -2.3417 C.ar    1  LIG1       -0.0065
     39 S          -4.5141    8.4693   -2.6445 S.2     1  LIG1       -0.0930
     40 H          -6.3525   10.0239   -3.0830 H       1  LIG1        0.0706
     41 N          -4.1300   10.0360    0.9456 N.pl3   1  LIG1       -0.3561
     42 H          -3.1821    9.9280    1.2763 H       1  LIG1        0.1424
     43 H          -4.5815   10.8932    1.2327 H       1  LIG1        0.1424
     44 C          -6.2266   11.3754   -0.5785 C.1     1  LIG1       -0.0673
     45 C          -6.8479   12.2846   -0.0950 C.1     1  LIG1       -0.1138
     46 H          -7.4126   13.0885    0.3172 H       1  LIG1        0.1232
@<TRIPOS>BOND
     1    40    38    1
     2    12    11    1
     3    39    38   ar
     4    39    35   ar
     5    38    37   ar
     6    11    10    3
     7    23    22    1
     8    37    44    1
     9    37    36   ar
    10    22    21    3
    11    10     3    1
    12    35    27    1
    13    35    36   ar
    14    28    27   ar
    15    28    24   ar
    16    21    15    1
    17     9     7    1
    18    27    26   ar
    19    44    45    3
    20    20    18    1
    21    36    41    1
    22    19    18    1
    23    15    16   ar
    24    15    14   ar
    25    24    16    1
    26    24    25   ar
    27    45    46    1
    28    18    14    1
    29    16    17   ar
    30    26    25   ar
    31    26    32    1
    32    14    13   ar
    33     3     4   ar
    34     3     2   ar
    35     7     8    1
    36     7     2    1
    37    25    29    1
    38    32    33    3
    39    13    17   ar
    40    13     4    1
    41    33    34    1
    42     4     5   ar
    43     2     1   ar
    44    30    29    1
    45    41    43    1
    46    41    42    1
    47    29    31    1
    48     1     5   ar
    49     1     6    1
