@<TRIPOS>MOLECULE
mol_data/opt/m06hf/geoms/mol2/5he5he-5he5he.out
 46 49 0 0 0
SMALL
GASTEIGER

@<TRIPOS>ATOM
      1 C          -1.5696   -1.5336    1.9291 C.ar    1  LIG1       -0.0018
      2 C          -0.8506   -1.7997    0.8056 C.ar    1  LIG1        0.0479
      3 C          -0.4292   -0.5832    0.1434 C.ar    1  LIG1        0.0606
      4 C          -0.8226    0.5564    0.8013 C.ar    1  LIG1        0.0449
      5 S          -1.7100    0.1615    2.2261 S.2     1  LIG1       -0.0930
      6 H          -2.0119   -2.2442    2.6071 H       1  LIG1        0.0712
      7 N          -0.4937   -3.0523    0.3112 N.pl3   1  LIG1       -0.3566
      8 H          -1.1163   -3.8019    0.5770 H       1  LIG1        0.1424
      9 H          -0.2926   -3.0505   -0.6808 H       1  LIG1        0.1424
     10 C           0.2694   -0.6085   -1.1074 C.1     1  LIG1       -0.0667
     11 C           0.8642   -0.6606   -2.1533 C.1     1  LIG1       -0.1138
     12 H           1.3733   -0.6938   -3.0889 H       1  LIG1        0.1232
     13 C          -0.5740    1.9458    0.4301 C.ar    1  LIG1        0.0496
     14 C           0.6119    2.5140    0.0395 C.ar    1  LIG1        0.0563
     15 C           0.4614    3.9328   -0.2137 C.ar    1  LIG1        0.0612
     16 C          -0.8067    4.4023    0.0238 C.ar    1  LIG1        0.0455
     17 S          -1.8500    3.1298    0.5373 S.2     1  LIG1       -0.0840
     18 N           1.8415    1.9020   -0.0546 N.pl3   1  LIG1       -0.3561
     19 H           1.8356    0.9193   -0.2887 H       1  LIG1        0.1424
     20 H           2.5374    2.4399   -0.5521 H       1  LIG1        0.1424
     21 C           1.5460    4.7219   -0.7164 C.1     1  LIG1       -0.0666
     22 C           2.4799    5.3610   -1.1293 C.1     1  LIG1       -0.1138
     23 H           3.2903    5.9328   -1.5187 H       1  LIG1        0.1232
     24 C          -1.3046    5.7666   -0.1136 C.ar    1  LIG1        0.0496
     25 C          -0.7295    6.9234    0.3491 C.ar    1  LIG1        0.0563
     26 C          -1.5551    8.0778    0.0555 C.ar    1  LIG1        0.0612
     27 C          -2.7323    7.7649   -0.5777 C.ar    1  LIG1        0.0455
     28 S          -2.8547    6.0684   -0.8512 S.2     1  LIG1       -0.0840
     29 N           0.4350    7.0492    1.0690 N.pl3   1  LIG1       -0.3561
     30 H           1.1518    6.3598    0.8959 H       1  LIG1        0.1424
     31 H           0.7765    7.9965    1.1541 H       1  LIG1        0.1424
     32 C          -1.1204    9.4062    0.3684 C.1     1  LIG1       -0.0666
     33 C          -0.7335   10.5102    0.6560 C.1     1  LIG1       -0.1138
     34 H          -0.3937   11.4945    0.8831 H       1  LIG1        0.1232
     35 C          -3.7985    8.6685   -0.9959 C.ar    1  LIG1        0.0490
     36 C          -4.3890    9.6689   -0.2631 C.ar    1  LIG1        0.0556
     37 C          -5.4735   10.2912   -1.0009 C.ar    1  LIG1        0.0529
     38 C          -5.6666    9.7365   -2.2292 C.ar    1  LIG1       -0.0065
     39 S          -4.5585    8.4758   -2.5544 S.2     1  LIG1       -0.0930
     40 H          -6.4044   10.0310   -2.9575 H       1  LIG1        0.0706
     41 N          -4.1155   10.0314    1.0338 N.pl3   1  LIG1       -0.3561
     42 H          -3.1622    9.9229    1.3483 H       1  LIG1        0.1424
     43 H          -4.5626   10.8875    1.3310 H       1  LIG1        0.1424
     44 C          -6.2376   11.3746   -0.4511 C.1     1  LIG1       -0.0673
     45 C          -6.8513   12.2819    0.0455 C.1     1  LIG1       -0.1138
     46 H          -7.4095   13.0842    0.4696 H       1  LIG1        0.1232
@<TRIPOS>BOND
     1    12    11    1
     2    40    38    1
     3    39    38   ar
     4    39    35   ar
     5    38    37   ar
     6    11    10    3
     7    23    22    1
     8    22    21    3
     9    10     3    1
    10    37    44    1
    11    37    36   ar
    12    35    27    1
    13    35    36   ar
    14    28    27   ar
    15    28    24   ar
    16    21    15    1
    17     9     7    1
    18    27    26   ar
    19    20    18    1
    20    44    45    3
    21    19    18    1
    22    36    41    1
    23    15    16   ar
    24    15    14   ar
    25    24    16    1
    26    24    25   ar
    27    18    14    1
    28    16    17   ar
    29    14    13   ar
    30    45    46    1
    31    26    25   ar
    32    26    32    1
    33     3     4   ar
    34     3     2   ar
    35     7     8    1
    36     7     2    1
    37    25    29    1
    38    32    33    3
    39    13    17   ar
    40    13     4    1
    41    33    34    1
    42     4     5   ar
    43     2     1   ar
    44    30    29    1
    45    41    43    1
    46    41    42    1
    47    29    31    1
    48     1     5   ar
    49     1     6    1
