@<TRIPOS>MOLECULE
mol_data/opt/m06hf/geoms/mol2/5he5he-5he-5he-.out
 46 49 0 0 0
SMALL
GASTEIGER

@<TRIPOS>ATOM
      1 C          -1.5848   -1.5319    1.9258 C.ar    1  LIG1       -0.0018
      2 C          -0.8586   -1.7992    0.8072 C.ar    1  LIG1        0.0479
      3 C          -0.4325   -0.5833    0.1467 C.ar    1  LIG1        0.0606
      4 C          -0.8297    0.5570    0.8012 C.ar    1  LIG1        0.0449
      5 S          -1.7266    0.1636    2.2205 S.2     1  LIG1       -0.0930
      6 H          -2.0316   -2.2418    2.6015 H       1  LIG1        0.0712
      7 N          -0.4990   -3.0523    0.3160 N.pl3   1  LIG1       -0.3566
      8 H          -1.1235   -3.8014    0.5785 H       1  LIG1        0.1424
      9 H          -0.2916   -3.0512   -0.6747 H       1  LIG1        0.1424
     10 C           0.2741   -0.6097   -1.0995 C.1     1  LIG1       -0.0667
     11 C           0.8758   -0.6630   -2.1415 C.1     1  LIG1       -0.1138
     12 H           1.3909   -0.6972   -3.0738 H       1  LIG1        0.1232
     13 C          -0.5781    1.9460    0.4305 C.ar    1  LIG1        0.0496
     14 C           0.6106    2.5134    0.0473 C.ar    1  LIG1        0.0563
     15 C           0.4622    3.9320   -0.2084 C.ar    1  LIG1        0.0612
     16 C          -0.8073    4.4021    0.0202 C.ar    1  LIG1        0.0455
     17 S          -1.8544    3.1305    0.5280 S.2     1  LIG1       -0.0840
     18 N           1.8406    1.9008   -0.0380 N.pl3   1  LIG1       -0.3561
     19 H           1.8358    0.9180   -0.2716 H       1  LIG1        0.1424
     20 H           2.5398    2.4381   -0.5315 H       1  LIG1        0.1424
     21 C           1.5504    4.7204   -0.7045 C.1     1  LIG1       -0.0666
     22 C           2.4874    5.3586   -1.1115 C.1     1  LIG1       -0.1138
     23 H           3.3006    5.9299   -1.4960 H       1  LIG1        0.1232
     24 C          -1.3038    5.7664   -0.1220 C.ar    1  LIG1        0.0496
     25 C          -0.7315    6.9235    0.3436 C.ar    1  LIG1        0.0563
     26 C          -1.5547    8.0778    0.0433 C.ar    1  LIG1        0.0612
     27 C          -2.7276    7.7648   -0.5978 C.ar    1  LIG1        0.0455
     28 S          -2.8487    6.0681   -0.8706 S.2     1  LIG1       -0.0840
     29 N           0.4280    7.0496    1.0715 N.pl3   1  LIG1       -0.3561
     30 H           1.1456    6.3597    0.9040 H       1  LIG1        0.1424
     31 H           0.7693    7.9968    1.1577 H       1  LIG1        0.1424
     32 C          -1.1219    9.4065    0.3579 C.1     1  LIG1       -0.0666
     33 C          -0.7365   10.5106    0.6470 C.1     1  LIG1       -0.1138
     34 H          -0.3978   11.4950    0.8754 H       1  LIG1        0.1232
     35 C          -3.7906    8.6683   -1.0242 C.ar    1  LIG1        0.0490
     36 C          -4.3858    9.6695   -0.2964 C.ar    1  LIG1        0.0556
     37 C          -5.4652   10.2913   -1.0421 C.ar    1  LIG1        0.0529
     38 C          -5.6501    9.7355   -2.2712 C.ar    1  LIG1       -0.0065
     39 S          -4.5399    8.4744   -2.5877 S.2     1  LIG1       -0.0930
     40 H          -6.3830   10.0293   -3.0047 H       1  LIG1        0.0706
     41 N          -4.1211   10.0332    1.0020 N.pl3   1  LIG1       -0.3561
     42 H          -3.1700    9.9248    1.3231 H       1  LIG1        0.1424
     43 H          -4.5701   10.8896    1.2954 H       1  LIG1        0.1424
     44 C          -6.2330   11.3753   -0.4985 C.1     1  LIG1       -0.0673
     45 C          -6.8499   12.2831   -0.0069 C.1     1  LIG1       -0.1138
     46 H          -7.4108   13.0858    0.4127 H       1  LIG1        0.1232
@<TRIPOS>BOND
     1    12    11    1
     2    40    38    1
     3    39    38   ar
     4    39    35   ar
     5    38    37   ar
     6    11    10    3
     7    23    22    1
     8    22    21    3
     9    10     3    1
    10    37    44    1
    11    37    36   ar
    12    35    27    1
    13    35    36   ar
    14    28    27   ar
    15    28    24   ar
    16    21    15    1
    17     9     7    1
    18    27    26   ar
    19    20    18    1
    20    44    45    3
    21    36    41    1
    22    19    18    1
    23    15    16   ar
    24    15    14   ar
    25    24    16    1
    26    24    25   ar
    27    18    14    1
    28    45    46    1
    29    16    17   ar
    30    26    25   ar
    31    26    32    1
    32    14    13   ar
    33     3     4   ar
    34     3     2   ar
    35     7     8    1
    36     7     2    1
    37    25    29    1
    38    32    33    3
    39    13    17   ar
    40    13     4    1
    41    33    34    1
    42     4     5   ar
    43     2     1   ar
    44    30    29    1
    45    41    43    1
    46    41    42    1
    47    29    31    1
    48     1     5   ar
    49     1     6    1
