@<TRIPOS>MOLECULE
mol_data/opt/m06hf/geoms/mol2/5he5he.out
 24 25 0 0 0
SMALL
GASTEIGER

@<TRIPOS>ATOM
      1 C          -2.0779   -1.7042   -0.6808 C.ar    1  LIG1       -0.0018
      2 C          -0.7870   -1.8234   -0.2690 C.ar    1  LIG1        0.0479
      3 C          -0.2286   -0.5432    0.1176 C.ar    1  LIG1        0.0606
      4 C          -1.1152    0.4962   -0.0235 C.ar    1  LIG1        0.0449
      5 S          -2.6296   -0.0677   -0.6290 S.2     1  LIG1       -0.0930
      6 H          -2.7419   -2.4947   -0.9877 H       1  LIG1        0.0712
      7 N          -0.0525   -2.9975   -0.1347 N.pl3   1  LIG1       -0.3566
      8 H          -0.3177   -3.7431   -0.7615 H       1  LIG1        0.1424
      9 H           0.9473   -2.8482   -0.0972 H       1  LIG1        0.1424
     10 C           1.1019   -0.4275    0.6376 C.1     1  LIG1       -0.0667
     11 C           2.2297   -0.3611    1.0505 C.1     1  LIG1       -0.1138
     12 H           3.2190   -0.2753    1.4360 H       1  LIG1        0.1232
     13 C          -0.8877    1.9149    0.2350 C.ar    1  LIG1        0.0489
     14 C           0.1752    2.6779   -0.1772 C.ar    1  LIG1        0.0556
     15 C           0.0144    4.0668    0.2101 C.ar    1  LIG1        0.0529
     16 C          -1.1451    4.2939    0.8883 C.ar    1  LIG1       -0.0065
     17 S          -2.0646    2.8668    1.0977 S.2     1  LIG1       -0.0930
     18 H          -1.4848    5.2391    1.2791 H       1  LIG1        0.0706
     19 N           1.2897    2.2616   -0.8640 N.pl3   1  LIG1       -0.3561
     20 H           1.2659    1.3299   -1.2506 H       1  LIG1        0.1424
     21 H           1.7376    2.9656   -1.4328 H       1  LIG1        0.1424
     22 C           0.9885    5.0656   -0.1292 C.1     1  LIG1       -0.0673
     23 C           1.8228    5.8725   -0.4447 C.1     1  LIG1       -0.1138
     24 H           2.5563    6.5981   -0.7117 H       1  LIG1        0.1232
@<TRIPOS>BOND
     1    21    19    1
     2    20    19    1
     3     6     1    1
     4    19    14    1
     5     8     7    1
     6    24    23    1
     7     1     5   ar
     8     1     2   ar
     9     5     4   ar
    10    23    22    3
    11     2     7    1
    12     2     3   ar
    13    14    15   ar
    14    14    13   ar
    15     7     9    1
    16    22    15    1
    17     4     3   ar
    18     4    13    1
    19     3    10    1
    20    15    16   ar
    21    13    17   ar
    22    10    11    3
    23    16    17   ar
    24    16    18    1
    25    11    12    1
