@<TRIPOS>MOLECULE
mol_data/opt/m06hf/geoms/mol2/5hf.out
 12 12 0 0 0
SMALL
GASTEIGER

@<TRIPOS>ATOM
      1 C          -2.1396   -1.6908   -0.0132 C.ar    1  LIG1        0.0000
      2 C          -0.7823   -1.6871   -0.0399 C.ar    1  LIG1        0.0737
      3 C          -0.2616   -0.3380   -0.0187 C.ar    1  LIG1        0.1444
      4 C          -1.2224    0.6146    0.0266 C.ar    1  LIG1        0.0190
      5 S          -2.7998   -0.0918    0.0422 S.2     1  LIG1       -0.0995
      6 H          -2.7909   -2.5492   -0.0064 H       1  LIG1        0.0713
      7 H          -1.0939    1.6848    0.0437 H       1  LIG1        0.0731
      8 N           0.0899   -2.7777   -0.0301 N.pl3   1  LIG1       -0.3547
      9 H          -0.2709   -3.6021   -0.4893 H       1  LIG1        0.1424
     10 H           1.0155   -2.5326   -0.3588 H       1  LIG1        0.1424
     11 O           1.0934   -0.1889   -0.0636 O.3     1  LIG1       -0.5044
     12 H           1.3363    0.7423   -0.0374 H       1  LIG1        0.2922
@<TRIPOS>BOND
     1     9     8    1
     2    10     8    1
     3    11    12    1
     4    11     3    1
     5     2     8    1
     6     2     3   ar
     7     2     1   ar
     8     3     4   ar
     9     1     6    1
    10     1     5   ar
    11     4     5   ar
    12     4     7    1
