@<TRIPOS>MOLECULE
mol_data/opt/m06hf/geoms/mol2/5hf5hf-.out
 22 23 0 0 0
SMALL
GASTEIGER

@<TRIPOS>ATOM
      1 C          -2.1339   -1.8294   -0.3747 C.ar    1  LIG1        0.0006
      2 C          -0.8348   -1.8226    0.0152 C.ar    1  LIG1        0.0744
      3 C          -0.3241   -0.4742    0.1669 C.ar    1  LIG1        0.1527
      4 C          -1.2535    0.4851   -0.1203 C.ar    1  LIG1        0.0710
      5 S          -2.7705   -0.2301   -0.5964 S.2     1  LIG1       -0.0905
      6 H          -2.7614   -2.6879   -0.5469 H       1  LIG1        0.0713
      7 N          -0.0091   -2.9016    0.3235 N.pl3   1  LIG1       -0.3547
      8 H          -0.1735   -3.7352   -0.2223 H       1  LIG1        0.1424
      9 H           0.9661   -2.6308    0.3511 H       1  LIG1        0.1424
     10 O           0.9495   -0.3031    0.5634 O.3     1  LIG1       -0.5038
     11 H           1.2883    0.5719    0.2089 H       1  LIG1        0.2923
     12 C          -1.0577    1.9265   -0.0193 C.ar    1  LIG1        0.0537
     13 C           0.1053    2.6069   -0.2266 C.ar    1  LIG1        0.0822
     14 C          -0.0219    4.0163    0.0210 C.ar    1  LIG1        0.1450
     15 C          -1.2735    4.3817    0.3894 C.ar    1  LIG1        0.0197
     16 S          -2.3277    3.0106    0.4609 S.2     1  LIG1       -0.0904
     17 H          -1.6397    5.3705    0.6115 H       1  LIG1        0.0731
     18 N           1.3257    2.0046   -0.6527 N.pl3   1  LIG1       -0.3542
     19 H           1.2737    1.7297   -1.6326 H       1  LIG1        0.1425
     20 H           2.0947    2.6608   -0.5357 H       1  LIG1        0.1425
     21 O           1.0859    4.7914   -0.1526 O.3     1  LIG1       -0.5044
     22 H           0.9081    5.7037    0.0981 H       1  LIG1        0.2922
@<TRIPOS>BOND
     1    19    18    1
     2    18    20    1
     3    18    13    1
     4     5     1   ar
     5     5     4   ar
     6     6     1    1
     7     1     2   ar
     8    13    12   ar
     9    13    14   ar
    10     8     7    1
    11    21    14    1
    12    21    22    1
    13     4    12    1
    14     4     3   ar
    15    12    16   ar
    16     2     3   ar
    17     2     7    1
    18    14    15   ar
    19     3    10    1
    20    11    10    1
    21     7     9    1
    22    15    16   ar
    23    15    17    1
