@<TRIPOS>MOLECULE
mol_data/opt/m06hf/geoms/mol2/5hf5hf-5hf5hf-.out
 42 45 0 0 0
SMALL
GASTEIGER

@<TRIPOS>ATOM
      1 C          -1.6184   -2.0247   -1.3497 C.ar    1  LIG1        0.0006
      2 C          -0.7682   -2.0262   -0.2931 C.ar    1  LIG1        0.0744
      3 C          -0.4184   -0.6820    0.1210 C.ar    1  LIG1        0.1527
      4 C          -1.0136    0.2831   -0.6427 C.ar    1  LIG1        0.0710
      5 S          -2.0035   -0.4202   -1.8905 S.2     1  LIG1       -0.0905
      6 H          -2.0509   -2.8787   -1.8441 H       1  LIG1        0.0713
      7 N          -0.2755   -3.1116    0.4303 N.pl3   1  LIG1       -0.3547
      8 H          -0.0876   -3.9376   -0.1196 H       1  LIG1        0.1424
      9 H           0.5083   -2.8410    1.0128 H       1  LIG1        0.1424
     10 O           0.4064   -0.5189    1.1700 O.3     1  LIG1       -0.5038
     11 H           0.8972    0.3525    1.0748 H       1  LIG1        0.2923
     12 C          -0.8902    1.7215   -0.4469 C.ar    1  LIG1        0.0544
     13 C           0.2009    2.3829    0.0304 C.ar    1  LIG1        0.0828
     14 C          -0.0071    3.7969    0.1829 C.ar    1  LIG1        0.1533
     15 C          -1.2553    4.1882   -0.2226 C.ar    1  LIG1        0.0716
     16 S          -2.1928    2.8240   -0.7769 S.2     1  LIG1       -0.0814
     17 N           1.4386    1.7643    0.3699 N.pl3   1  LIG1       -0.3542
     18 H           1.9304    1.4523   -0.4663 H       1  LIG1        0.1425
     19 H           2.0210    2.4374    0.8651 H       1  LIG1        0.1425
     20 O           0.9790    4.5519    0.6947 O.3     1  LIG1       -0.5037
     21 H           0.8897    5.4941    0.3479 H       1  LIG1        0.2923
     22 C          -1.7853    5.5430   -0.1662 C.ar    1  LIG1        0.0544
     23 C          -1.0678    6.6957   -0.2865 C.ar    1  LIG1        0.0828
     24 C          -1.8546    7.8819   -0.0932 C.ar    1  LIG1        0.1533
     25 C          -3.1748    7.6019    0.1360 C.ar    1  LIG1        0.0716
     26 S          -3.4635    5.8822    0.1304 S.2     1  LIG1       -0.0814
     27 N           0.3297    6.7583   -0.5594 N.pl3   1  LIG1       -0.3542
     28 H           0.5254    6.4885   -1.5227 H       1  LIG1        0.1425
     29 H           0.6516    7.7139   -0.4124 H       1  LIG1        0.1425
     30 O          -1.2536    9.0826   -0.1390 O.3     1  LIG1       -0.5037
     31 H          -1.9222    9.7696   -0.4478 H       1  LIG1        0.2923
     32 C          -4.2251    8.5791    0.3920 C.ar    1  LIG1        0.0538
     33 C          -4.2845    9.8498   -0.1003 C.ar    1  LIG1        0.0822
     34 C          -5.4107   10.5874    0.3989 C.ar    1  LIG1        0.1450
     35 C          -6.1886    9.8642    1.2410 C.ar    1  LIG1        0.0197
     36 S          -5.5560    8.2686    1.4596 S.2     1  LIG1       -0.0904
     37 H          -7.0982   10.1670    1.7333 H       1  LIG1        0.0731
     38 N          -3.3431   10.4036   -1.0176 N.pl3   1  LIG1       -0.3542
     39 H          -3.4683   10.0119   -1.9500 H       1  LIG1        0.1425
     40 H          -3.4611   11.4133   -1.0686 H       1  LIG1        0.1425
     41 O          -5.5622   11.8719   -0.0293 O.3     1  LIG1       -0.5044
     42 H          -6.3058   12.2979    0.4097 H       1  LIG1        0.2922
@<TRIPOS>BOND
     1    39    38    1
     2     5     1   ar
     3     5     4   ar
     4     6     1    1
     5    28    27    1
     6     1     2   ar
     7    40    38    1
     8    38    33    1
     9    16    12   ar
    10    16    15   ar
    11     4    12    1
    12     4     3   ar
    13    27    29    1
    14    27    23    1
    15    18    17    1
    16    31    30    1
    17    12    13   ar
    18     2     3   ar
    19     2     7    1
    20    23    22   ar
    21    23    24   ar
    22    15    22    1
    23    15    14   ar
    24    22    26   ar
    25    30    24    1
    26     8     7    1
    27    33    32   ar
    28    33    34   ar
    29    24    25   ar
    30    41    34    1
    31    41    42    1
    32    13    14   ar
    33    13    17    1
    34     3    10    1
    35    26    25   ar
    36    25    32    1
    37    14    20    1
    38    21    20    1
    39    17    19    1
    40    32    36   ar
    41    34    35   ar
    42     7     9    1
    43    11    10    1
    44    35    36   ar
    45    35    37    1
