@<TRIPOS>MOLECULE
mol_data/opt/m06hf/geoms/mol2/5hf5hf-5hf.out
 32 34 0 0 0
SMALL
GASTEIGER

@<TRIPOS>ATOM
      1 C          -1.9666   -1.9463   -0.8609 C.ar    1  LIG1        0.0006
      2 C          -0.8438   -1.9321   -0.1006 C.ar    1  LIG1        0.0744
      3 C          -0.3909   -0.5815    0.1680 C.ar    1  LIG1        0.1527
      4 C          -1.1863    0.3715   -0.4044 C.ar    1  LIG1        0.0710
      5 S          -2.4967   -0.3515   -1.2942 S.2     1  LIG1       -0.0905
      6 H          -2.5223   -2.8073   -1.1928 H       1  LIG1        0.0713
      7 N          -0.1580   -3.0049    0.4651 N.pl3   1  LIG1       -0.3547
      8 H          -0.1428   -3.8454   -0.0944 H       1  LIG1        0.1424
      9 H           0.7597   -2.7295    0.7930 H       1  LIG1        0.1424
     10 O           0.7030   -0.4039    0.9287 O.3     1  LIG1       -0.5038
     11 H           1.1449    0.4629    0.6799 H       1  LIG1        0.2923
     12 C          -1.0140    1.8127   -0.2775 C.ar    1  LIG1        0.0544
     13 C           0.1676    2.4784   -0.1476 C.ar    1  LIG1        0.0828
     14 C           0.0098    3.8943    0.0427 C.ar    1  LIG1        0.1533
     15 C          -1.3029    4.2820    0.0188 C.ar    1  LIG1        0.0716
     16 S          -2.3574    2.9141   -0.2278 S.2     1  LIG1       -0.0814
     17 N           1.4513    1.8620   -0.1780 N.pl3   1  LIG1       -0.3542
     18 H           1.6756    1.5329   -1.1161 H       1  LIG1        0.1425
     19 H           2.1538    2.5398    0.1127 H       1  LIG1        0.1425
     20 O           1.1009    4.6570    0.2263 O.3     1  LIG1       -0.5037
     21 H           0.9095    5.5891   -0.1008 H       1  LIG1        0.2923
     22 C          -1.8026    5.6400    0.1921 C.ar    1  LIG1        0.0538
     23 C          -1.1638    6.7912   -0.1640 C.ar    1  LIG1        0.0822
     24 C          -1.9014    7.9701    0.1943 C.ar    1  LIG1        0.1450
     25 C          -3.0852    7.6952    0.7943 C.ar    1  LIG1        0.0197
     26 S          -3.3200    5.9888    0.9562 S.2     1  LIG1       -0.0904
     27 H          -3.8338    8.3891    1.1399 H       1  LIG1        0.0731
     28 N           0.0957    6.8402   -0.8323 N.pl3   1  LIG1       -0.3542
     29 H          -0.0006    6.5621   -1.8080 H       1  LIG1        0.1425
     30 H           0.4678    7.7867   -0.7969 H       1  LIG1        0.1425
     31 O          -1.3521    9.1777   -0.1171 O.3     1  LIG1       -0.5044
     32 H          -1.8869    9.8989    0.2300 H       1  LIG1        0.2922
@<TRIPOS>BOND
     1    29    28    1
     2     5     1   ar
     3     5     4   ar
     4     6     1    1
     5    18    17    1
     6     1     2   ar
     7    28    30    1
     8    28    23    1
     9     4    12    1
    10     4     3   ar
    11    12    16   ar
    12    12    13   ar
    13    16    15   ar
    14    17    13    1
    15    17    19    1
    16    23    22   ar
    17    23    24   ar
    18    13    14   ar
    19    31    24    1
    20    31    32    1
    21    21    20    1
    22     2     3   ar
    23     2     7    1
    24     8     7    1
    25    15    14   ar
    26    15    22    1
    27    14    20    1
    28     3    10    1
    29    22    26   ar
    30    24    25   ar
    31     7     9    1
    32    11    10    1
    33    25    26   ar
    34    25    27    1
