@<TRIPOS>MOLECULE
mol_data/opt/m06hf/geoms/mol2/5hg.out
 12 12 0 0 0
SMALL
GASTEIGER

@<TRIPOS>ATOM
      1 C          -2.1603   -1.6933   -0.1326 C.ar    1  LIG1       -0.0026
      2 C          -0.8031   -1.6397   -0.0219 C.ar    1  LIG1        0.0450
      3 C          -0.3451   -0.2811    0.1840 C.ar    1  LIG1        0.0324
      4 C          -1.3653    0.6152    0.2435 C.ar    1  LIG1       -0.0093
      5 S          -2.8888   -0.1359    0.0256 S.2     1  LIG1       -0.1021
      6 H          -2.7706   -2.5694   -0.2747 H       1  LIG1        0.0712
      7 H          -1.2810    1.6784    0.4000 H       1  LIG1        0.0705
      8 N           0.0715   -2.7232   -0.0351 N.pl3   1  LIG1       -0.3567
      9 H          -0.2277   -3.5068   -0.5968 H       1  LIG1        0.1424
     10 H           1.0349   -2.4629   -0.2011 H       1  LIG1        0.1424
     11 S           1.3709    0.1504    0.3699 S.3     1  LIG1       -0.1403
     12 H           1.5861    0.4984   -0.9058 H       1  LIG1        0.1072
@<TRIPOS>BOND
     1    12    11    1
     2     9     8    1
     3     6     1    1
     4    10     8    1
     5     1     2   ar
     6     1     5   ar
     7     8     2    1
     8     2     3   ar
     9     5     4   ar
    10     3     4   ar
    11     3    11    1
    12     4     7    1
