@<TRIPOS>MOLECULE
mol_data/opt/m06hf/geoms/mol2/5hh.out
 13 13 0 0 0
SMALL
GASTEIGER

@<TRIPOS>ATOM
      1 C          -2.1309   -1.6814   -0.3333 C.ar    1  LIG1       -0.0018
      2 C          -0.7765   -1.6772   -0.2611 C.ar    1  LIG1        0.0526
      3 C          -0.2416   -0.3511   -0.0285 C.ar    1  LIG1        0.0526
      4 C          -1.2162    0.5856    0.0828 C.ar    1  LIG1       -0.0018
      5 S          -2.7923   -0.1000   -0.1065 S.2     1  LIG1       -0.1013
      6 H          -2.7787   -2.5284   -0.4916 H       1  LIG1        0.0712
      7 H          -1.0959    1.6437    0.2500 H       1  LIG1        0.0712
      8 N           0.1216   -2.7476   -0.4274 N.pl3   1  LIG1       -0.3561
      9 H           0.8128   -2.7585    0.3176 H       1  LIG1        0.1424
     10 H          -0.3395   -3.6464   -0.4964 H       1  LIG1        0.1424
     11 N           1.1512   -0.1979    0.0995 N.pl3   1  LIG1       -0.3561
     12 H           1.6372   -0.6586   -0.6651 H       1  LIG1        0.1424
     13 H           1.4399    0.7699    0.1711 H       1  LIG1        0.1424
@<TRIPOS>BOND
     1    12    11    1
     2    10     8    1
     3     6     1    1
     4     8     2    1
     5     8     9    1
     6     1     2   ar
     7     1     5   ar
     8     2     3   ar
     9     5     4   ar
    10     3     4   ar
    11     3    11    1
    12     4     7    1
    13    11    13    1
