@<TRIPOS>MOLECULE
mol_data/opt/m06hf/geoms/mol2/5hi.out
 14 14 0 0 0
SMALL
GASTEIGER

@<TRIPOS>ATOM
      1 C          -2.1470   -1.7199   -0.0561 C.ar    1  LIG1       -0.0034
      2 C          -0.7876   -1.6869   -0.0784 C.ar    1  LIG1        0.0346
      3 C          -0.2617   -0.3403    0.0040 C.ar    1  LIG1       -0.0228
      4 C          -1.2575    0.5781    0.0813 C.ar    1  LIG1       -0.0196
      5 S          -2.8237   -0.1362    0.0748 S.2     1  LIG1       -0.1029
      6 H          -2.7861   -2.5865   -0.1034 H       1  LIG1        0.0712
      7 H          -1.1507    1.6488    0.1576 H       1  LIG1        0.0696
      8 N           0.0775   -2.7969   -0.1013 N.pl3   1  LIG1       -0.3573
      9 H          -0.4062   -3.6717   -0.2604 H       1  LIG1        0.1423
     10 H           0.8342   -2.6911   -0.7673 H       1  LIG1        0.1423
     11 C           1.2194   -0.0475    0.0219 C.3     1  LIG1       -0.0375
     12 H           1.3941    1.0074    0.2281 H       1  LIG1        0.0278
     13 H           1.6764   -0.2893   -0.9412 H       1  LIG1        0.0278
     14 H           1.7036   -0.6487    0.7933 H       1  LIG1        0.0278
@<TRIPOS>BOND
     1    13    11    1
     2    10     8    1
     3     9     8    1
     4     6     1    1
     5     8     2    1
     6     2     1   ar
     7     2     3   ar
     8     1     5   ar
     9     3    11    1
    10     3     4   ar
    11    11    12    1
    12    11    14    1
    13     5     4   ar
    14     4     7    1
