@<TRIPOS>MOLECULE
mol_data/opt/m06hf/geoms/mol2/5hi5hi-5hi-5hi-.out
 50 53 0 0 0
SMALL
GASTEIGER

@<TRIPOS>ATOM
      1 C          -1.0243   -1.6386   -2.2548 C.ar    1  LIG1       -0.0028
      2 C          -0.6521   -1.8231   -0.9595 C.ar    1  LIG1        0.0352
      3 C          -0.4849   -0.5778   -0.2421 C.ar    1  LIG1       -0.0145
      4 C          -0.7266    0.5035   -1.0413 C.ar    1  LIG1        0.0324
      5 S          -1.1736    0.0352   -2.6514 S.2     1  LIG1       -0.0939
      6 H          -1.2287   -2.3973   -2.9929 H       1  LIG1        0.0712
      7 N          -0.5179   -3.0539   -0.2951 N.pl3   1  LIG1       -0.3573
      8 H          -0.5538   -3.8531   -0.9145 H       1  LIG1        0.1423
      9 H           0.3028   -3.0983    0.2972 H       1  LIG1        0.1423
     10 C          -0.1687   -0.5263    1.2333 C.3     1  LIG1       -0.0369
     11 H          -0.3495    0.4769    1.6171 H       1  LIG1        0.0278
     12 H           0.8779   -0.7777    1.4285 H       1  LIG1        0.0278
     13 H          -0.8033   -1.2447    1.7557 H       1  LIG1        0.0278
     14 C          -0.6185    1.9138   -0.6598 C.ar    1  LIG1        0.0477
     15 C           0.4781    2.5025   -0.0928 C.ar    1  LIG1        0.0436
     16 C           0.2787    3.8999    0.2086 C.ar    1  LIG1       -0.0139
     17 C          -0.9641    4.3258   -0.1737 C.ar    1  LIG1        0.0330
     18 S          -1.9136    3.0504   -0.8658 S.2     1  LIG1       -0.0850
     19 N           1.6646    1.8368    0.2333 N.pl3   1  LIG1       -0.3568
     20 H           1.7402    0.9400   -0.2348 H       1  LIG1        0.1424
     21 H           2.4921    2.4020    0.0865 H       1  LIG1        0.1424
     22 C           1.3094    4.7334    0.9314 C.3     1  LIG1       -0.0368
     23 H           0.8499    5.6493    1.3009 H       1  LIG1        0.0278
     24 H           2.1355    5.0139    0.2714 H       1  LIG1        0.0278
     25 H           1.7093    4.1584    1.7688 H       1  LIG1        0.0278
     26 C          -1.4891    5.6882   -0.0527 C.ar    1  LIG1        0.0477
     27 C          -0.8758    6.8223   -0.5114 C.ar    1  LIG1        0.0436
     28 C          -1.6080    8.0267   -0.1999 C.ar    1  LIG1       -0.0139
     29 C          -2.7729    7.7522    0.4621 C.ar    1  LIG1        0.0330
     30 S          -2.9919    6.0546    0.7353 S.2     1  LIG1       -0.0850
     31 N           0.3607    6.8555   -1.1645 N.pl3   1  LIG1       -0.3568
     32 H           0.6210    5.9501   -1.5413 H       1  LIG1        0.1424
     33 H           0.4208    7.5790   -1.8704 H       1  LIG1        0.1424
     34 C          -1.0830    9.4068   -0.5151 C.3     1  LIG1       -0.0368
     35 H          -1.6634   10.1540    0.0248 H       1  LIG1        0.0278
     36 H          -1.1567    9.6308   -1.5834 H       1  LIG1        0.0278
     37 H          -0.0348    9.4688   -0.2163 H       1  LIG1        0.0278
     38 C          -3.7784    8.7246    0.8974 C.ar    1  LIG1        0.0471
     39 C          -4.3861    9.6585    0.1048 C.ar    1  LIG1        0.0430
     40 C          -5.3312   10.4802    0.8271 C.ar    1  LIG1       -0.0222
     41 C          -5.4045   10.1190    2.1336 C.ar    1  LIG1       -0.0190
     42 S          -4.3483    8.8190    2.5359 S.2     1  LIG1       -0.0940
     43 H          -6.0281   10.5637    2.8935 H       1  LIG1        0.0697
     44 N          -4.1166    9.8550   -1.2541 N.pl3   1  LIG1       -0.3569
     45 H          -3.6346    9.0639   -1.6680 H       1  LIG1        0.1424
     46 H          -4.9377   10.1047   -1.7920 H       1  LIG1        0.1424
     47 C          -6.1115   11.5920    0.1675 C.3     1  LIG1       -0.0374
     48 H          -6.6941   12.1369    0.9086 H       1  LIG1        0.0278
     49 H          -6.7998   11.1916   -0.5816 H       1  LIG1        0.0278
     50 H          -5.4279   12.2845   -0.3271 H       1  LIG1        0.0278
@<TRIPOS>BOND
     1     6     1    1
     2     5     1   ar
     3     5     4   ar
     4     1     2   ar
     5    33    31    1
     6    46    44    1
     7    45    44    1
     8    36    34    1
     9    32    31    1
    10    44    39    1
    11    31    27    1
    12     4    14    1
    13     4     3   ar
    14     2     7    1
    15     2     3   ar
    16     8     7    1
    17    18    14   ar
    18    18    17   ar
    19    14    15   ar
    20    49    47    1
    21    34    37    1
    22    34    28    1
    23    34    35    1
    24    27    28   ar
    25    27    26   ar
    26    50    47    1
    27     7     9    1
    28     3    10    1
    29    20    19    1
    30    28    29   ar
    31    17    26    1
    32    17    16   ar
    33    15    16   ar
    34    15    19    1
    35    26    30   ar
    36    21    19    1
    37    39    40   ar
    38    39    38   ar
    39    47    40    1
    40    47    48    1
    41    16    22    1
    42    24    22    1
    43    29    30   ar
    44    29    38    1
    45    40    41   ar
    46    38    42   ar
    47    22    23    1
    48    22    25    1
    49    10    12    1
    50    10    11    1
    51    10    13    1
    52    41    42   ar
    53    41    43    1
