@<TRIPOS>MOLECULE
mol_data/opt/m06hf/geoms/mol2/5hi5hi-.out
 26 27 0 0 0
SMALL
GASTEIGER

@<TRIPOS>ATOM
      1 C          -2.0028   -1.7319   -0.8305 C.ar    1  LIG1       -0.0028
      2 C          -0.7614   -1.8143   -0.2815 C.ar    1  LIG1        0.0352
      3 C          -0.2524   -0.5295    0.1475 C.ar    1  LIG1       -0.0145
      4 C          -1.1372    0.4786   -0.1126 C.ar    1  LIG1        0.0324
      5 S          -2.5911   -0.1077   -0.8575 S.2     1  LIG1       -0.0939
      6 H          -2.6075   -2.5400   -1.2090 H       1  LIG1        0.0712
      7 N          -0.0316   -2.9912   -0.0378 N.pl3   1  LIG1       -0.3573
      8 H          -0.4329   -3.8085   -0.4788 H       1  LIG1        0.1423
      9 H           0.9484   -2.9037   -0.2803 H       1  LIG1        0.1423
     10 C           1.0642   -0.3742    0.8696 C.3     1  LIG1       -0.0369
     11 H           1.1175    0.6108    1.3316 H       1  LIG1        0.0278
     12 H           1.9117   -0.4736    0.1852 H       1  LIG1        0.0278
     13 H           1.1420   -1.1476    1.6361 H       1  LIG1        0.0278
     14 C          -0.9438    1.9068    0.1533 C.ar    1  LIG1        0.0470
     15 C           0.1046    2.6680   -0.2833 C.ar    1  LIG1        0.0430
     16 C           0.0190    4.0450    0.1489 C.ar    1  LIG1       -0.0222
     17 C          -1.0999    4.2642    0.8853 C.ar    1  LIG1       -0.0190
     18 S          -2.0567    2.8479    1.0999 S.2     1  LIG1       -0.0940
     19 H          -1.4095    5.1980    1.3280 H       1  LIG1        0.0697
     20 N           1.1841    2.1887   -1.0351 N.pl3   1  LIG1       -0.3569
     21 H           0.9812    1.2910   -1.4623 H       1  LIG1        0.1424
     22 H           1.5151    2.8527   -1.7245 H       1  LIG1        0.1424
     23 C           1.0686    5.0732   -0.1993 C.3     1  LIG1       -0.0374
     24 H           0.8691    6.0085    0.3213 H       1  LIG1        0.0278
     25 H           1.0751    5.2745   -1.2741 H       1  LIG1        0.0278
     26 H           2.0563    4.7090    0.0894 H       1  LIG1        0.0278
@<TRIPOS>BOND
     1    22    20    1
     2    21    20    1
     3    25    23    1
     4     6     1    1
     5    20    15    1
     6     5     1   ar
     7     5     4   ar
     8     1     2   ar
     9     8     7    1
    10    15    16   ar
    11    15    14   ar
    12     2     7    1
    13     2     3   ar
    14     9     7    1
    15    23    26    1
    16    23    16    1
    17    23    24    1
    18     4     3   ar
    19     4    14    1
    20     3    10    1
    21    16    17   ar
    22    14    18   ar
    23    12    10    1
    24    10    11    1
    25    10    13    1
    26    17    18   ar
    27    17    19    1
