@<TRIPOS>MOLECULE
mol_data/opt/m06hf/geoms/mol2/5hi5hi5hi5hi-.out
 50 53 0 0 0
SMALL
GASTEIGER

@<TRIPOS>ATOM
      1 C          -1.0333   -1.6477   -2.2448 C.ar    1  LIG1       -0.0028
      2 C          -0.6579   -1.8272   -0.9498 C.ar    1  LIG1        0.0352
      3 C          -0.4882   -0.5792   -0.2378 C.ar    1  LIG1       -0.0145
      4 C          -0.7314    0.4992   -1.0406 C.ar    1  LIG1        0.0324
      5 S          -1.1828    0.0247   -2.6477 S.2     1  LIG1       -0.0939
      6 H          -1.2401   -2.4092   -2.9794 H       1  LIG1        0.0712
      7 N          -0.5226   -3.0554   -0.2809 N.pl3   1  LIG1       -0.3573
      8 H          -0.5606   -3.8570   -0.8970 H       1  LIG1        0.1423
      9 H           0.2995   -3.0979    0.3095 H       1  LIG1        0.1423
     10 C          -0.1681   -0.5220    1.2366 C.3     1  LIG1       -0.0369
     11 H          -0.3474    0.4828    1.6168 H       1  LIG1        0.0278
     12 H           0.8789   -0.7731    1.4301 H       1  LIG1        0.0278
     13 H          -0.8018   -1.2379    1.7634 H       1  LIG1        0.0278
     14 C          -0.6215    1.9109   -0.6650 C.ar    1  LIG1        0.0477
     15 C           0.4768    2.5012   -0.1032 C.ar    1  LIG1        0.0436
     16 C           0.2789    3.8999    0.1932 C.ar    1  LIG1       -0.0139
     17 C          -0.9646    4.3249   -0.1875 C.ar    1  LIG1        0.0330
     18 S          -1.9166    3.0473   -0.8722 S.2     1  LIG1       -0.0850
     19 N           1.6638    1.8361    0.2225 N.pl3   1  LIG1       -0.3568
     20 H           1.7378    0.9374   -0.2422 H       1  LIG1        0.1424
     21 H           2.4912    2.4003    0.0713 H       1  LIG1        0.1424
     22 C           1.3119    4.7357    0.9100 C.3     1  LIG1       -0.0368
     23 H           0.8540    5.6533    1.2771 H       1  LIG1        0.0278
     24 H           2.1365    5.0131    0.2469 H       1  LIG1        0.0278
     25 H           1.7137    4.1638    1.7487 H       1  LIG1        0.0278
     26 C          -1.4885    5.6881   -0.0706 C.ar    1  LIG1        0.0477
     27 C          -0.8759    6.8200   -0.5354 C.ar    1  LIG1        0.0436
     28 C          -1.6066    8.0260   -0.2268 C.ar    1  LIG1       -0.0139
     29 C          -2.7699    7.7548    0.4393 C.ar    1  LIG1        0.0330
     30 S          -2.9891    6.0584    0.7198 S.2     1  LIG1       -0.0850
     31 N           0.3590    6.8500   -1.1917 N.pl3   1  LIG1       -0.3568
     32 H           0.6179    5.9430   -1.5657 H       1  LIG1        0.1424
     33 H           0.4177    7.5706   -1.9007 H       1  LIG1        0.1424
     34 C          -1.0816    9.4046   -0.5487 C.3     1  LIG1       -0.0368
     35 H          -1.6602   10.1543   -0.0104 H       1  LIG1        0.0278
     36 H          -1.1579    9.6245   -1.6178 H       1  LIG1        0.0278
     37 H          -0.0327    9.4673   -0.2529 H       1  LIG1        0.0278
     38 C          -3.7738    8.7295    0.8734 C.ar    1  LIG1        0.0471
     39 C          -4.3830    9.6606    0.0786 C.ar    1  LIG1        0.0430
     40 C          -5.3258   10.4857    0.8001 C.ar    1  LIG1       -0.0222
     41 C          -5.3959   10.1297    2.1082 C.ar    1  LIG1       -0.0190
     42 S          -4.3394    8.8307    2.5130 S.2     1  LIG1       -0.0940
     43 H          -6.0173   10.5777    2.8679 H       1  LIG1        0.0697
     44 N          -4.1169    9.8516   -1.2818 N.pl3   1  LIG1       -0.3569
     45 H          -3.6364    9.0586   -1.6938 H       1  LIG1        0.1424
     46 H          -4.9392   10.0996   -1.8185 H       1  LIG1        0.1424
     47 C          -6.1071   11.5953    0.1381 C.3     1  LIG1       -0.0374
     48 H          -6.6876   12.1434    0.8785 H       1  LIG1        0.0278
     49 H          -6.7976   11.1923   -0.6077 H       1  LIG1        0.0278
     50 H          -5.4244   12.2854   -0.3610 H       1  LIG1        0.0278
@<TRIPOS>BOND
     1     6     1    1
     2     5     1   ar
     3     5     4   ar
     4     1     2   ar
     5    33    31    1
     6    46    44    1
     7    45    44    1
     8    36    34    1
     9    32    31    1
    10    44    39    1
    11    31    27    1
    12     4    14    1
    13     4     3   ar
    14     2     7    1
    15     2     3   ar
    16     8     7    1
    17    18    14   ar
    18    18    17   ar
    19    14    15   ar
    20    49    47    1
    21    34    37    1
    22    34    28    1
    23    34    35    1
    24    27    28   ar
    25    27    26   ar
    26    50    47    1
    27     7     9    1
    28    20    19    1
    29     3    10    1
    30    28    29   ar
    31    17    26    1
    32    17    16   ar
    33    15    16   ar
    34    15    19    1
    35    26    30   ar
    36    21    19    1
    37    39    40   ar
    38    39    38   ar
    39    47    40    1
    40    47    48    1
    41    16    22    1
    42    24    22    1
    43    29    30   ar
    44    29    38    1
    45    40    41   ar
    46    38    42   ar
    47    22    23    1
    48    22    25    1
    49    10    12    1
    50    10    11    1
    51    10    13    1
    52    41    42   ar
    53    41    43    1
