@<TRIPOS>MOLECULE
mol_data/opt/m06hf/geoms/mol2/5hi5hi5hi5hi.out
 50 53 0 0 0
SMALL
GASTEIGER

@<TRIPOS>ATOM
      1 C          -1.0280   -1.6430   -2.2529 C.ar    1  LIG1       -0.0028
      2 C          -0.6540   -1.8250   -0.9578 C.ar    1  LIG1        0.0352
      3 C          -0.4857   -0.5783   -0.2431 C.ar    1  LIG1       -0.0145
      4 C          -0.7283    0.5015   -1.0440 C.ar    1  LIG1        0.0324
      5 S          -1.1777    0.0301   -2.6526 S.2     1  LIG1       -0.0939
      6 H          -1.2336   -2.4031   -2.9893 H       1  LIG1        0.0712
      7 N          -0.5191   -3.0545   -0.2912 N.pl3   1  LIG1       -0.3573
      8 H          -0.5560   -3.8549   -0.9089 H       1  LIG1        0.1423
      9 H           0.3024   -3.0978    0.3000 H       1  LIG1        0.1423
     10 C          -0.1674   -0.5240    1.2318 C.3     1  LIG1       -0.0369
     11 H          -0.3475    0.4800    1.6138 H       1  LIG1        0.0278
     12 H           0.8795   -0.7751    1.4260 H       1  LIG1        0.0278
     13 H          -0.8014   -1.2412    1.7564 H       1  LIG1        0.0278
     14 C          -0.6194    1.9125   -0.6654 C.ar    1  LIG1        0.0477
     15 C           0.4780    2.5022   -0.1012 C.ar    1  LIG1        0.0436
     16 C           0.2792    3.9002    0.1978 C.ar    1  LIG1       -0.0139
     17 C          -0.9640    4.3255   -0.1836 C.ar    1  LIG1        0.0330
     18 S          -1.9147    3.0489   -0.8719 S.2     1  LIG1       -0.0850
     19 N           1.6649    1.8369    0.2246 N.pl3   1  LIG1       -0.3568
     20 H           1.7397    0.9391   -0.2418 H       1  LIG1        0.1424
     21 H           2.4922    2.4016    0.0755 H       1  LIG1        0.1424
     22 C           1.3111    4.7349    0.9175 C.3     1  LIG1       -0.0368
     23 H           0.8523    5.6516    1.2858 H       1  LIG1        0.0278
     24 H           2.1363    5.0140    0.2559 H       1  LIG1        0.0278
     25 H           1.7120    4.1615    1.7555 H       1  LIG1        0.0278
     26 C          -1.4886    5.6882   -0.0645 C.ar    1  LIG1        0.0477
     27 C          -0.8758    6.8213   -0.5263 C.ar    1  LIG1        0.0436
     28 C          -1.6074    8.0264   -0.2162 C.ar    1  LIG1       -0.0139
     29 C          -2.7713    7.7534    0.4480 C.ar    1  LIG1        0.0330
     30 S          -2.9903    6.0564    0.7248 S.2     1  LIG1       -0.0850
     31 N           0.3598    6.8530   -1.1811 N.pl3   1  LIG1       -0.3568
     32 H           0.6195    5.9469   -1.5566 H       1  LIG1        0.1424
     33 H           0.4191    7.5751   -1.8886 H       1  LIG1        0.1424
     34 C          -1.0826    9.4058   -0.5348 C.3     1  LIG1       -0.0368
     35 H          -1.6621   10.1542    0.0044 H       1  LIG1        0.0278
     36 H          -1.1576    9.6278   -1.6035 H       1  LIG1        0.0278
     37 H          -0.0340    9.4683   -0.2376 H       1  LIG1        0.0278
     38 C          -3.7761    8.7268    0.8828 C.ar    1  LIG1        0.0471
     39 C          -4.3847    9.6593    0.0891 C.ar    1  LIG1        0.0430
     40 C          -5.3287   10.4826    0.8112 C.ar    1  LIG1       -0.0222
     41 C          -5.4003   10.1240    2.1185 C.ar    1  LIG1       -0.0190
     42 S          -4.3438    8.8246    2.5219 S.2     1  LIG1       -0.0940
     43 H          -6.0227   10.5702    2.8783 H       1  LIG1        0.0697
     44 N          -4.1171    9.8532   -1.2705 N.pl3   1  LIG1       -0.3569
     45 H          -3.6358    9.0611   -1.6835 H       1  LIG1        0.1424
     46 H          -4.9388   10.1019   -1.8078 H       1  LIG1        0.1424
     47 C          -6.1097   11.5933    0.1504 C.3     1  LIG1       -0.0374
     48 H          -6.6912   12.1397    0.8913 H       1  LIG1        0.0278
     49 H          -6.7992   11.1915   -0.5970 H       1  LIG1        0.0278
     50 H          -5.4267   12.2846   -0.3465 H       1  LIG1        0.0278
@<TRIPOS>BOND
     1     6     1    1
     2     5     1   ar
     3     5     4   ar
     4     1     2   ar
     5    33    31    1
     6    46    44    1
     7    45    44    1
     8    36    34    1
     9    32    31    1
    10    44    39    1
    11    31    27    1
    12     4    14    1
    13     4     3   ar
    14     2     7    1
    15     2     3   ar
    16     8     7    1
    17    18    14   ar
    18    18    17   ar
    19    14    15   ar
    20    49    47    1
    21    34    37    1
    22    34    28    1
    23    34    35    1
    24    27    28   ar
    25    27    26   ar
    26    50    47    1
    27     7     9    1
    28     3    10    1
    29    20    19    1
    30    28    29   ar
    31    17    26    1
    32    17    16   ar
    33    15    16   ar
    34    15    19    1
    35    26    30   ar
    36    21    19    1
    37    39    40   ar
    38    39    38   ar
    39    47    40    1
    40    47    48    1
    41    16    22    1
    42    24    22    1
    43    29    30   ar
    44    29    38    1
    45    40    41   ar
    46    38    42   ar
    47    22    23    1
    48    22    25    1
    49    10    12    1
    50    10    11    1
    51    10    13    1
    52    41    42   ar
    53    41    43    1
