@<TRIPOS>MOLECULE
mol_data/opt/m06hf/geoms/mol2/5hi5hi-5hi-5hi.out
 50 53 0 0 0
SMALL
GASTEIGER

@<TRIPOS>ATOM
      1 C          -1.0244   -1.6306   -2.2744 C.ar    1  LIG1       -0.0028
      2 C          -0.6512   -1.8196   -0.9800 C.ar    1  LIG1        0.0352
      3 C          -0.4838   -0.5769   -0.2582 C.ar    1  LIG1       -0.0145
      4 C          -0.7263    0.5073   -1.0534 C.ar    1  LIG1        0.0324
      5 S          -1.1744    0.0447   -2.6648 S.2     1  LIG1       -0.0939
      6 H          -1.2293   -2.3866   -3.0150 H       1  LIG1        0.0712
      7 N          -0.5164   -3.0527   -0.3201 N.pl3   1  LIG1       -0.3573
      8 H          -0.5526   -3.8497   -0.9423 H       1  LIG1        0.1423
      9 H           0.3047   -3.0991    0.2714 H       1  LIG1        0.1423
     10 C          -0.1666   -0.5306    1.2171 C.3     1  LIG1       -0.0369
     11 H          -0.3473    0.4712    1.6046 H       1  LIG1        0.0278
     12 H           0.8803   -0.7824    1.4107 H       1  LIG1        0.0278
     13 H          -0.8007   -1.2510    1.7373 H       1  LIG1        0.0278
     14 C          -0.6181    1.9163   -0.6669 C.ar    1  LIG1        0.0477
     15 C           0.4787    2.5031   -0.0986 C.ar    1  LIG1        0.0436
     16 C           0.2793    3.8994    0.2080 C.ar    1  LIG1       -0.0139
     17 C          -0.9639    4.3264   -0.1719 C.ar    1  LIG1        0.0330
     18 S          -1.9136    3.0533   -0.8679 S.2     1  LIG1       -0.0850
     19 N           1.6656    1.8364    0.2243 N.pl3   1  LIG1       -0.3568
     20 H           1.7411    0.9413   -0.2471 H       1  LIG1        0.1424
     21 H           2.4929    2.4023    0.0789 H       1  LIG1        0.1424
     22 C           1.3103    4.7304    0.9331 C.3     1  LIG1       -0.0368
     23 H           0.8510    5.6449    1.3061 H       1  LIG1        0.0278
     24 H           2.1359    5.0135    0.2735 H       1  LIG1        0.0278
     25 H           1.7109    4.1525    1.7681 H       1  LIG1        0.0278
     26 C          -1.4890    5.6882   -0.0456 C.ar    1  LIG1        0.0477
     27 C          -0.8763    6.8241   -0.5007 C.ar    1  LIG1        0.0436
     28 C          -1.6084    8.0272   -0.1844 C.ar    1  LIG1       -0.0139
     29 C          -2.7728    7.7501    0.4775 C.ar    1  LIG1        0.0330
     30 S          -2.9913    6.0516    0.7447 S.2     1  LIG1       -0.0850
     31 N           0.3598    6.8599   -1.1545 N.pl3   1  LIG1       -0.3568
     32 H           0.6200    5.9559   -1.5348 H       1  LIG1        0.1424
     33 H           0.4193    7.5859   -1.8579 H       1  LIG1        0.1424
     34 C          -1.0839    9.4086   -0.4949 C.3     1  LIG1       -0.0368
     35 H          -1.6640   10.1537    0.0480 H       1  LIG1        0.0278
     36 H          -1.1583    9.6364   -1.5624 H       1  LIG1        0.0278
     37 H          -0.0355    9.4697   -0.1967 H       1  LIG1        0.0278
     38 C          -3.7782    8.7208    0.9169 C.ar    1  LIG1        0.0471
     39 C          -4.3866    9.6575    0.1281 C.ar    1  LIG1        0.0430
     40 C          -5.3313   10.4764    0.8540 C.ar    1  LIG1       -0.0222
     41 C          -5.4036   10.1105    2.1593 C.ar    1  LIG1       -0.0190
     42 S          -4.3470    8.8092    2.5562 S.2     1  LIG1       -0.0940
     43 H          -6.0268   10.5523    2.9212 H       1  LIG1        0.0697
     44 N          -4.1180    9.8589   -1.2303 N.pl3   1  LIG1       -0.3569
     45 H          -3.6362    9.0694   -1.6474 H       1  LIG1        0.1424
     46 H          -4.9395   10.1104   -1.7667 H       1  LIG1        0.1424
     47 C          -6.1122   11.5905    0.1989 C.3     1  LIG1       -0.0374
     48 H          -6.6945   12.1325    0.9424 H       1  LIG1        0.0278
     49 H          -6.8010   11.1926   -0.5512 H       1  LIG1        0.0278
     50 H          -5.4291   12.2848   -0.2937 H       1  LIG1        0.0278
@<TRIPOS>BOND
     1     6     1    1
     2     5     1   ar
     3     5     4   ar
     4     1     2   ar
     5    33    31    1
     6    46    44    1
     7    45    44    1
     8    36    34    1
     9    32    31    1
    10    44    39    1
    11    31    27    1
    12     4    14    1
    13     4     3   ar
    14     2     7    1
    15     2     3   ar
    16     8     7    1
    17    18    14   ar
    18    18    17   ar
    19    14    15   ar
    20    49    47    1
    21    27    28   ar
    22    27    26   ar
    23    34    37    1
    24    34    28    1
    25    34    35    1
    26     7     9    1
    27    50    47    1
    28     3    10    1
    29    20    19    1
    30    28    29   ar
    31    17    26    1
    32    17    16   ar
    33    15    16   ar
    34    15    19    1
    35    26    30   ar
    36    21    19    1
    37    39    40   ar
    38    39    38   ar
    39    47    40    1
    40    47    48    1
    41    16    22    1
    42    24    22    1
    43    29    30   ar
    44    29    38    1
    45    40    41   ar
    46    38    42   ar
    47    22    23    1
    48    22    25    1
    49    10    12    1
    50    10    11    1
    51    10    13    1
    52    41    42   ar
    53    41    43    1
