@<TRIPOS>MOLECULE
mol_data/opt/m06hf/geoms/mol2/5hi5hi5hi-.out
 38 40 0 0 0
SMALL
GASTEIGER

@<TRIPOS>ATOM
      1 C          -1.6622   -1.7261   -1.5492 C.ar    1  LIG1       -0.0028
      2 C          -0.7661   -1.8500   -0.5334 C.ar    1  LIG1        0.0352
      3 C          -0.3695   -0.5742    0.0215 C.ar    1  LIG1       -0.0145
      4 C          -0.9800    0.4683   -0.6175 C.ar    1  LIG1        0.0324
      5 S          -2.0468   -0.0748   -1.8740 S.2     1  LIG1       -0.0939
      6 H          -2.1246   -2.5184   -2.1155 H       1  LIG1        0.0712
      7 N          -0.3052   -3.0510    0.0316 N.pl3   1  LIG1       -0.3573
      8 H          -0.5524   -3.8704   -0.5075 H       1  LIG1        0.1423
      9 H           0.6879   -3.0416    0.2306 H       1  LIG1        0.1423
     10 C           0.5436   -0.4572    1.2179 C.3     1  LIG1       -0.0369
     11 H           0.4894    0.5499    1.6297 H       1  LIG1        0.0278
     12 H           1.5849   -0.6555    0.9477 H       1  LIG1        0.0278
     13 H           0.2341   -1.1828    1.9724 H       1  LIG1        0.0278
     14 C          -0.7896    1.8948   -0.3407 C.ar    1  LIG1        0.0477
     15 C           0.4115    2.5489   -0.3131 C.ar    1  LIG1        0.0436
     16 C           0.2892    3.9448    0.0341 C.ar    1  LIG1       -0.0139
     17 C          -1.0153    4.3031    0.2326 C.ar    1  LIG1        0.0330
     18 S          -2.1042    2.9689    0.0283 S.2     1  LIG1       -0.0850
     19 N           1.6556    1.9455   -0.5301 N.pl3   1  LIG1       -0.3568
     20 H           1.5665    1.0415   -0.9819 H       1  LIG1        0.1424
     21 H           2.3069    2.5417   -1.0263 H       1  LIG1        0.1424
     22 C           1.4852    4.8479    0.2171 C.3     1  LIG1       -0.0368
     23 H           1.1832    5.7605    0.7292 H       1  LIG1        0.0278
     24 H           1.9249    5.1304   -0.7437 H       1  LIG1        0.0278
     25 H           2.2409    4.3264    0.8080 H       1  LIG1        0.0278
     26 C          -1.5114    5.6434    0.5564 C.ar    1  LIG1        0.0471
     27 C          -1.2536    6.7842   -0.1526 C.ar    1  LIG1        0.0430
     28 C          -1.8772    7.9555    0.4209 C.ar    1  LIG1       -0.0222
     29 C          -2.5913    7.6419    1.5317 C.ar    1  LIG1       -0.0190
     30 S          -2.5237    5.9677    1.9294 S.2     1  LIG1       -0.0940
     31 H          -3.1544    8.3227    2.1510 H       1  LIG1        0.0697
     32 N          -0.4453    6.8537   -1.2933 N.pl3   1  LIG1       -0.3569
     33 H          -0.3034    5.9430   -1.7177 H       1  LIG1        0.1424
     34 H          -0.7763    7.5252   -1.9755 H       1  LIG1        0.1424
     35 C          -1.7256    9.3341   -0.1762 C.3     1  LIG1       -0.0374
     36 H          -2.1808   10.0799    0.4736 H       1  LIG1        0.0278
     37 H          -2.2123    9.3897   -1.1536 H       1  LIG1        0.0278
     38 H          -0.6678    9.5725   -0.3035 H       1  LIG1        0.0278
@<TRIPOS>BOND
     1     6     1    1
     2    34    32    1
     3     5     1   ar
     4     5     4   ar
     5    33    32    1
     6     1     2   ar
     7    32    27    1
     8    37    35    1
     9    21    19    1
    10    20    19    1
    11    24    22    1
    12     4    14    1
    13     4     3   ar
    14     2     3   ar
    15     2     7    1
    16    19    15    1
    17     8     7    1
    18    14    15   ar
    19    14    18   ar
    20    15    16   ar
    21    38    35    1
    22    35    28    1
    23    35    36    1
    24    27    28   ar
    25    27    26   ar
    26     3    10    1
    27    18    17   ar
    28     7     9    1
    29    16    22    1
    30    16    17   ar
    31    22    23    1
    32    22    25    1
    33    17    26    1
    34    28    29   ar
    35    26    30   ar
    36    12    10    1
    37    10    11    1
    38    10    13    1
    39    29    30   ar
    40    29    31    1
