@<TRIPOS>MOLECULE
mol_data/opt/m06hf/geoms/mol2/5hi5hi-5hi5hi-.out
 50 53 0 0 0
SMALL
GASTEIGER

@<TRIPOS>ATOM
      1 C          -1.0459   -1.6384   -2.2563 C.ar    1  LIG1       -0.0028
      2 C          -0.6603   -1.8229   -0.9649 C.ar    1  LIG1        0.0352
      3 C          -0.4859   -0.5777   -0.2492 C.ar    1  LIG1       -0.0145
      4 C          -0.7361    0.5037   -1.0458 C.ar    1  LIG1        0.0324
      5 S          -1.1997    0.0354   -2.6512 S.2     1  LIG1       -0.0939
      6 H          -1.2579   -2.3971   -2.9923 H       1  LIG1        0.0712
      7 N          -0.5189   -3.0537   -0.3021 N.pl3   1  LIG1       -0.3573
      8 H          -0.5611   -3.8528   -0.9211 H       1  LIG1        0.1423
      9 H           0.3078   -3.0980    0.2817 H       1  LIG1        0.1423
     10 C          -0.1544   -0.5262    1.2229 C.3     1  LIG1       -0.0369
     11 H          -0.3314    0.4770    1.6085 H       1  LIG1        0.0278
     12 H           0.8942   -0.7773    1.4071 H       1  LIG1        0.0278
     13 H          -0.7834   -1.2447    1.7517 H       1  LIG1        0.0278
     14 C          -0.6243    1.9140   -0.6653 C.ar    1  LIG1        0.0477
     15 C           0.4779    2.5029   -0.1097 C.ar    1  LIG1        0.0436
     16 C           0.2814    3.9002    0.1939 C.ar    1  LIG1       -0.0139
     17 C          -0.9654    4.3259   -0.1754 C.ar    1  LIG1        0.0330
     18 S          -1.9218    3.0503   -0.8578 S.2     1  LIG1       -0.0850
     19 N           1.6679    1.8374    0.2040 N.pl3   1  LIG1       -0.3568
     20 H           1.7389    0.9406   -0.2649 H       1  LIG1        0.1424
     21 H           2.4937    2.4027    0.0486 H       1  LIG1        0.1424
     22 C           1.3194    4.7339    0.9060 C.3     1  LIG1       -0.0368
     23 H           0.8636    5.6496    1.2803 H       1  LIG1        0.0278
     24 H           2.1385    5.0146    0.2375 H       1  LIG1        0.0278
     25 H           1.7280    4.1589    1.7391 H       1  LIG1        0.0278
     26 C          -1.4893    5.6881   -0.0489 C.ar    1  LIG1        0.0477
     27 C          -0.8811    6.8224   -0.5139 C.ar    1  LIG1        0.0436
     28 C          -1.6103    8.0266   -0.1947 C.ar    1  LIG1       -0.0139
     29 C          -2.7682    7.7518    0.4794 C.ar    1  LIG1        0.0330
     30 S          -2.9840    6.0542    0.7546 S.2     1  LIG1       -0.0850
     31 N           0.3486    6.8559   -1.1797 N.pl3   1  LIG1       -0.3568
     32 H           0.6051    5.9506   -1.5593 H       1  LIG1        0.1424
     33 H           0.4012    7.5795   -1.8862 H       1  LIG1        0.1424
     34 C          -1.0889    9.4069   -0.5152 C.3     1  LIG1       -0.0368
     35 H          -1.6638   10.1539    0.0307 H       1  LIG1        0.0278
     36 H          -1.1737    9.6310   -1.5827 H       1  LIG1        0.0278
     37 H          -0.0377    9.4691   -0.2273 H       1  LIG1        0.0278
     38 C          -3.7693    8.7240    0.9251 C.ar    1  LIG1        0.0471
     39 C          -4.3854    9.6579    0.1389 C.ar    1  LIG1        0.0430
     40 C          -5.3231   10.4793    0.8710 C.ar    1  LIG1       -0.0222
     41 C          -5.3828   10.1180    2.1782 C.ar    1  LIG1       -0.0190
     42 S          -4.3223    8.8182    2.5695 S.2     1  LIG1       -0.0940
     43 H          -5.9986   10.5625    2.9446 H       1  LIG1        0.0697
     44 N          -4.1300    9.8546   -1.2227 N.pl3   1  LIG1       -0.3569
     45 H          -3.6522    9.0635   -1.6416 H       1  LIG1        0.1424
     46 H          -4.9567   10.1041   -1.7521 H       1  LIG1        0.1424
     47 C          -6.1104   11.5910    0.2196 C.3     1  LIG1       -0.0374
     48 H          -6.6854   12.1357    0.9668 H       1  LIG1        0.0278
     49 H          -6.8064   11.1905   -0.5223 H       1  LIG1        0.0278
     50 H          -5.4321   12.2837   -0.2820 H       1  LIG1        0.0278
@<TRIPOS>BOND
     1     6     1    1
     2     5     1   ar
     3     5     4   ar
     4     1     2   ar
     5    33    31    1
     6    46    44    1
     7    45    44    1
     8    36    34    1
     9    32    31    1
    10    44    39    1
    11    31    27    1
    12     4    14    1
    13     4     3   ar
    14     2     7    1
    15     2     3   ar
    16     8     7    1
    17    18    14   ar
    18    18    17   ar
    19    14    15   ar
    20    49    47    1
    21    34    37    1
    22    34    28    1
    23    34    35    1
    24    27    28   ar
    25    27    26   ar
    26     7     9    1
    27    50    47    1
    28    20    19    1
    29     3    10    1
    30    28    29   ar
    31    17    26    1
    32    17    16   ar
    33    15    16   ar
    34    15    19    1
    35    26    30   ar
    36    21    19    1
    37    39    40   ar
    38    39    38   ar
    39    16    22    1
    40    47    40    1
    41    47    48    1
    42    24    22    1
    43    29    30   ar
    44    29    38    1
    45    40    41   ar
    46    22    23    1
    47    22    25    1
    48    38    42   ar
    49    10    12    1
    50    10    11    1
    51    10    13    1
    52    41    42   ar
    53    41    43    1
