@<TRIPOS>MOLECULE
mol_data/opt/m06hf/geoms/mol2/5hi5hi5hi-5hi-.out
 50 53 0 0 0
SMALL
GASTEIGER

@<TRIPOS>ATOM
      1 C          -1.0121   -1.6446   -2.2535 C.ar    1  LIG1       -0.0028
      2 C          -0.6480   -1.8258   -0.9554 C.ar    1  LIG1        0.0352
      3 C          -0.4849   -0.5787   -0.2402 C.ar    1  LIG1       -0.0145
      4 C          -0.7214    0.5007   -1.0437 C.ar    1  LIG1        0.0324
      5 S          -1.1585    0.0282   -2.6554 S.2     1  LIG1       -0.0939
      6 H          -1.2122   -2.4052   -2.9909 H       1  LIG1        0.0712
      7 N          -0.5183   -3.0549   -0.2870 N.pl3   1  LIG1       -0.3573
      8 H          -0.5506   -3.8556   -0.9045 H       1  LIG1        0.1423
      9 H           0.2987   -3.0979    0.3105 H       1  LIG1        0.1423
     10 C          -0.1779   -0.5234    1.2370 C.3     1  LIG1       -0.0369
     11 H          -0.3608    0.4809    1.6170 H       1  LIG1        0.0278
     12 H           0.8674   -0.7745    1.4393 H       1  LIG1        0.0278
     13 H          -0.8159   -1.2402    1.7572 H       1  LIG1        0.0278
     14 C          -0.6152    1.9119   -0.6652 C.ar    1  LIG1        0.0477
     15 C           0.4779    2.5018   -0.0930 C.ar    1  LIG1        0.0436
     16 C           0.2771    3.9000    0.2035 C.ar    1  LIG1       -0.0139
     17 C          -0.9632    4.3252   -0.1876 C.ar    1  LIG1        0.0330
     18 S          -1.9087    3.0483   -0.8823 S.2     1  LIG1       -0.0850
     19 N           1.6623    1.8366    0.2422 N.pl3   1  LIG1       -0.3568
     20 H           1.7405    0.9385   -0.2231 H       1  LIG1        0.1424
     21 H           2.4908    2.4012    0.0991 H       1  LIG1        0.1424
     22 C           1.3035    4.7351    0.9306 C.3     1  LIG1       -0.0368
     23 H           0.8420    5.6521    1.2948 H       1  LIG1        0.0278
     24 H           2.1337    5.0137    0.2750 H       1  LIG1        0.0278
     25 H           1.6980    4.1622    1.7719 H       1  LIG1        0.0278
     26 C          -1.4885    5.6881   -0.0734 C.ar    1  LIG1        0.0477
     27 C          -0.8721    6.8208   -0.5313 C.ar    1  LIG1        0.0436
     28 C          -1.6059    8.0262   -0.2275 C.ar    1  LIG1       -0.0139
     29 C          -2.7749    7.7538    0.4280 C.ar    1  LIG1        0.0330
     30 S          -2.9961    6.0570    0.7042 S.2     1  LIG1       -0.0850
     31 N           0.3685    6.8520   -1.1767 N.pl3   1  LIG1       -0.3568
     32 H           0.6309    5.9456   -1.5496 H       1  LIG1        0.1424
     33 H           0.4332    7.5736   -1.8842 H       1  LIG1        0.1424
     34 C          -1.0785    9.4054   -0.5430 C.3     1  LIG1       -0.0368
     35 H          -1.6620   10.1541   -0.0087 H       1  LIG1        0.0278
     36 H          -1.1454    9.6266   -1.6124 H       1  LIG1        0.0278
     37 H          -0.0322    9.4679   -0.2379 H       1  LIG1        0.0278
     38 C          -3.7829    8.7276    0.8544 C.ar    1  LIG1        0.0471
     39 C          -4.3853    9.6596    0.0555 C.ar    1  LIG1        0.0430
     40 C          -5.3347   10.4834    0.7698 C.ar    1  LIG1       -0.0222
     41 C          -5.4162   10.1257    2.0768 C.ar    1  LIG1       -0.0190
     42 S          -4.3630    8.8264    2.4891 S.2     1  LIG1       -0.0940
     43 H          -6.0444   10.5725    2.8316 H       1  LIG1        0.0697
     44 N          -4.1072    9.8525   -1.3021 N.pl3   1  LIG1       -0.3569
     45 H          -3.6229    9.0602   -1.7109 H       1  LIG1        0.1424
     46 H          -4.9249   10.1010   -1.8458 H       1  LIG1        0.1424
     47 C          -6.1105   11.5938    0.1024 C.3     1  LIG1       -0.0374
     48 H          -6.6976   12.1407    0.8385 H       1  LIG1        0.0278
     49 H          -6.7942   11.1915   -0.6499 H       1  LIG1        0.0278
     50 H          -5.4236   12.2847   -0.3897 H       1  LIG1        0.0278
@<TRIPOS>BOND
     1     6     1    1
     2     5     1   ar
     3     5     4   ar
     4     1     2   ar
     5    33    31    1
     6    46    44    1
     7    45    44    1
     8    36    34    1
     9    32    31    1
    10    44    39    1
    11    31    27    1
    12     4    14    1
    13     4     3   ar
    14     2     7    1
    15     2     3   ar
    16     8     7    1
    17    18    14   ar
    18    18    17   ar
    19    14    15   ar
    20    49    47    1
    21    34    37    1
    22    34    28    1
    23    34    35    1
    24    27    28   ar
    25    27    26   ar
    26    50    47    1
    27     7     9    1
    28     3    10    1
    29    28    29   ar
    30    20    19    1
    31    17    26    1
    32    17    16   ar
    33    15    16   ar
    34    15    19    1
    35    26    30   ar
    36    39    40   ar
    37    39    38   ar
    38    21    19    1
    39    47    40    1
    40    47    48    1
    41    16    22    1
    42    24    22    1
    43    29    30   ar
    44    29    38    1
    45    40    41   ar
    46    38    42   ar
    47    22    23    1
    48    22    25    1
    49    10    12    1
    50    10    11    1
    51    10    13    1
    52    41    42   ar
    53    41    43    1
