@<TRIPOS>MOLECULE
mol_data/opt/m06hf/geoms/mol2/5hi5hi.out
 26 27 0 0 0
SMALL
GASTEIGER

@<TRIPOS>ATOM
      1 C          -1.9986   -1.7345   -0.8225 C.ar    1  LIG1       -0.0028
      2 C          -0.7596   -1.8152   -0.2679 C.ar    1  LIG1        0.0352
      3 C          -0.2527   -0.5292    0.1599 C.ar    1  LIG1       -0.0145
      4 C          -1.1365    0.4780   -0.1067 C.ar    1  LIG1        0.0324
      5 S          -2.5871   -0.1105   -0.8563 S.2     1  LIG1       -0.0939
      6 H          -2.6016   -2.5437   -1.2014 H       1  LIG1        0.0712
      7 N          -0.0306   -2.9914   -0.0179 N.pl3   1  LIG1       -0.3573
      8 H          -0.4299   -3.8099   -0.4585 H       1  LIG1        0.1423
      9 H           0.9504   -2.9043   -0.2564 H       1  LIG1        0.1423
     10 C           1.0608   -0.3717    0.8873 C.3     1  LIG1       -0.0369
     11 H           1.1120    0.6144    1.3468 H       1  LIG1        0.0278
     12 H           1.9113   -0.4729    0.2068 H       1  LIG1        0.0278
     13 H           1.1354   -1.1431    1.6561 H       1  LIG1        0.0278
     14 C          -0.9444    1.9070    0.1563 C.ar    1  LIG1        0.0470
     15 C           0.1057    2.6672   -0.2778 C.ar    1  LIG1        0.0430
     16 C           0.0181    4.0453    0.1504 C.ar    1  LIG1       -0.0222
     17 C          -1.1040    4.2663    0.8814 C.ar    1  LIG1       -0.0190
     18 S          -2.0615    2.8504    1.0956 S.2     1  LIG1       -0.0940
     19 H          -1.4157    5.2011    1.3203 H       1  LIG1        0.0697
     20 N           1.1885    2.1861   -1.0236 N.pl3   1  LIG1       -0.3569
     21 H           0.9876    1.2873   -1.4494 H       1  LIG1        0.1424
     22 H           1.5224    2.8484   -1.7134 H       1  LIG1        0.1424
     23 C           1.0690    5.0727   -0.1960 C.3     1  LIG1       -0.0374
     24 H           0.8671    6.0094    0.3212 H       1  LIG1        0.0278
     25 H           1.0801    5.2712   -1.2713 H       1  LIG1        0.0278
     26 H           2.0555    4.7095    0.0979 H       1  LIG1        0.0278
@<TRIPOS>BOND
     1    22    20    1
     2    21    20    1
     3    25    23    1
     4     6     1    1
     5    20    15    1
     6     5     1   ar
     7     5     4   ar
     8     1     2   ar
     9     8     7    1
    10    15    16   ar
    11    15    14   ar
    12     2     7    1
    13     2     3   ar
    14     9     7    1
    15    23    26    1
    16    23    16    1
    17    23    24    1
    18     4    14    1
    19     4     3   ar
    20    16    17   ar
    21    14    18   ar
    22     3    10    1
    23    12    10    1
    24    17    18   ar
    25    17    19    1
    26    10    11    1
    27    10    13    1
