@<TRIPOS>MOLECULE
mol_data/opt/m06hf/geoms/mol2/5hi5hi-5hi-.out
 38 40 0 0 0
SMALL
GASTEIGER

@<TRIPOS>ATOM
      1 C          -1.6618   -1.7249   -1.5477 C.ar    1  LIG1       -0.0028
      2 C          -0.7631   -1.8495   -0.5344 C.ar    1  LIG1        0.0352
      3 C          -0.3662   -0.5741    0.0214 C.ar    1  LIG1       -0.0145
      4 C          -0.9793    0.4688   -0.6146 C.ar    1  LIG1        0.0324
      5 S          -2.0487   -0.0736   -1.8692 S.2     1  LIG1       -0.0939
      6 H          -2.1250   -2.5169   -2.1140 H       1  LIG1        0.0712
      7 N          -0.2998   -3.0509    0.0278 N.pl3   1  LIG1       -0.3573
      8 H          -0.5475   -3.8697   -0.5119 H       1  LIG1        0.1423
      9 H           0.6939   -3.0409    0.2243 H       1  LIG1        0.1423
     10 C           0.5497   -0.4579    1.2156 C.3     1  LIG1       -0.0369
     11 H           0.4957    0.5485    1.6290 H       1  LIG1        0.0278
     12 H           1.5905   -0.6550    0.9425 H       1  LIG1        0.0278
     13 H           0.2428   -1.1849    1.9699 H       1  LIG1        0.0278
     14 C          -0.7895    1.8950   -0.3363 C.ar    1  LIG1        0.0477
     15 C           0.4111    2.5501   -0.3108 C.ar    1  LIG1        0.0436
     16 C           0.2884    3.9455    0.0386 C.ar    1  LIG1       -0.0139
     17 C          -1.0159    4.3023    0.2409 C.ar    1  LIG1        0.0330
     18 S          -2.1041    2.9675    0.0375 S.2     1  LIG1       -0.0850
     19 N           1.6552    1.9482   -0.5318 N.pl3   1  LIG1       -0.3568
     20 H           1.5658    1.0448   -0.9846 H       1  LIG1        0.1424
     21 H           2.3047    2.5457   -1.0287 H       1  LIG1        0.1424
     22 C           1.4841    4.8494    0.2199 C.3     1  LIG1       -0.0368
     23 H           1.1825    5.7610    0.7341 H       1  LIG1        0.0278
     24 H           1.9211    5.1336   -0.7416 H       1  LIG1        0.0278
     25 H           2.2417    4.3278    0.8082 H       1  LIG1        0.0278
     26 C          -1.5124    5.6417    0.5678 C.ar    1  LIG1        0.0471
     27 C          -1.2574    6.7837   -0.1402 C.ar    1  LIG1        0.0430
     28 C          -1.8806    7.9536    0.4366 C.ar    1  LIG1       -0.0222
     29 C          -2.5916    7.6378    1.5487 C.ar    1  LIG1       -0.0190
     30 S          -2.5215    5.9632    1.9439 S.2     1  LIG1       -0.0940
     31 H          -3.1538    8.3172    2.1704 H       1  LIG1        0.0697
     32 N          -0.4521    6.8556   -1.2828 N.pl3   1  LIG1       -0.3569
     33 H          -0.3104    5.9456   -1.7088 H       1  LIG1        0.1424
     34 H          -0.7854    7.5277   -1.9632 H       1  LIG1        0.1424
     35 C          -1.7318    9.3333   -0.1590 C.3     1  LIG1       -0.0374
     36 H          -2.1861   10.0777    0.4930 H       1  LIG1        0.0278
     37 H          -2.2210    9.3897   -1.1351 H       1  LIG1        0.0278
     38 H          -0.6745    9.5728   -0.2886 H       1  LIG1        0.0278
@<TRIPOS>BOND
     1     6     1    1
     2    34    32    1
     3     5     1   ar
     4     5     4   ar
     5    33    32    1
     6     1     2   ar
     7    32    27    1
     8    37    35    1
     9    21    19    1
    10    20    19    1
    11    24    22    1
    12     4    14    1
    13     4     3   ar
    14     2     3   ar
    15     2     7    1
    16    19    15    1
    17     8     7    1
    18    14    15   ar
    19    14    18   ar
    20    15    16   ar
    21    38    35    1
    22    35    28    1
    23    35    36    1
    24    27    28   ar
    25    27    26   ar
    26     3    10    1
    27     7     9    1
    28    18    17   ar
    29    16    22    1
    30    16    17   ar
    31    22    23    1
    32    22    25    1
    33    17    26    1
    34    28    29   ar
    35    26    30   ar
    36    12    10    1
    37    10    11    1
    38    10    13    1
    39    29    30   ar
    40    29    31    1
