@<TRIPOS>MOLECULE
mol_data/opt/m06hf/geoms/mol2/5hi5hi-5hi5hi.out
 50 53 0 0 0
SMALL
GASTEIGER

@<TRIPOS>ATOM
      1 C          -1.0415   -1.6321   -2.2695 C.ar    1  LIG1       -0.0028
      2 C          -0.6562   -1.8199   -0.9785 C.ar    1  LIG1        0.0352
      3 C          -0.4828   -0.5765   -0.2594 C.ar    1  LIG1       -0.0145
      4 C          -0.7332    0.5069   -1.0531 C.ar    1  LIG1        0.0324
      5 S          -1.1960    0.0427   -2.6599 S.2     1  LIG1       -0.0939
      6 H          -1.2528   -2.3889   -3.0077 H       1  LIG1        0.0712
      7 N          -0.5145   -3.0524   -0.3190 N.pl3   1  LIG1       -0.3573
      8 H          -0.5561   -3.8499   -0.9402 H       1  LIG1        0.1423
      9 H           0.3121   -3.0978    0.2649 H       1  LIG1        0.1423
     10 C          -0.1519   -0.5289    1.2130 C.3     1  LIG1       -0.0369
     11 H          -0.3295    0.4732    1.6013 H       1  LIG1        0.0278
     12 H           0.8969   -0.7799    1.3969 H       1  LIG1        0.0278
     13 H          -0.7807   -1.2492    1.7396 H       1  LIG1        0.0278
     14 C          -0.6223    1.9162   -0.6687 C.ar    1  LIG1        0.0477
     15 C           0.4794    2.5042   -0.1111 C.ar    1  LIG1        0.0436
     16 C           0.2821    3.9005    0.1962 C.ar    1  LIG1       -0.0139
     17 C          -0.9648    4.3265   -0.1725 C.ar    1  LIG1        0.0330
     18 S          -1.9203    3.0524   -0.8586 S.2     1  LIG1       -0.0850
     19 N           1.6697    1.8384    0.2012 N.pl3   1  LIG1       -0.3568
     20 H           1.7412    0.9429   -0.2701 H       1  LIG1        0.1424
     21 H           2.4952    2.4046    0.0477 H       1  LIG1        0.1424
     22 C           1.3194    4.7328    0.9109 C.3     1  LIG1       -0.0368
     23 H           0.8630    5.6473    1.2876 H       1  LIG1        0.0278
     24 H           2.1386    5.0157    0.2436 H       1  LIG1        0.0278
     25 H           1.7280    4.1557    1.7427 H       1  LIG1        0.0278
     26 C          -1.4895    5.6882   -0.0424 C.ar    1  LIG1        0.0477
     27 C          -0.8817    6.8240   -0.5041 C.ar    1  LIG1        0.0436
     28 C          -1.6116    8.0270   -0.1819 C.ar    1  LIG1       -0.0139
     29 C          -2.7695    7.7498    0.4910 C.ar    1  LIG1        0.0330
     30 S          -2.9846    6.0513    0.7616 S.2     1  LIG1       -0.0850
     31 N           0.3483    6.8600   -1.1694 N.pl3   1  LIG1       -0.3568
     32 H           0.6054    5.9559   -1.5514 H       1  LIG1        0.1424
     33 H           0.4008    7.5855   -1.8739 H       1  LIG1        0.1424
     34 C          -1.0907    9.4084   -0.4984 C.3     1  LIG1       -0.0368
     35 H          -1.6662   10.1537    0.0493 H       1  LIG1        0.0278
     36 H          -1.1752    9.6354   -1.5654 H       1  LIG1        0.0278
     37 H          -0.0396    9.4704   -0.2100 H       1  LIG1        0.0278
     38 C          -3.7714    8.7203    0.9390 C.ar    1  LIG1        0.0471
     39 C          -4.3876    9.6560    0.1551 C.ar    1  LIG1        0.0430
     40 C          -5.3260   10.4749    0.8891 C.ar    1  LIG1       -0.0222
     41 C          -5.3860   10.1101    2.1953 C.ar    1  LIG1       -0.0190
     42 S          -4.3250    8.8097    2.5834 S.2     1  LIG1       -0.0940
     43 H          -6.0023   10.5522    2.9626 H       1  LIG1        0.0697
     44 N          -4.1318    9.8565   -1.2059 N.pl3   1  LIG1       -0.3569
     45 H          -3.6535    9.0668   -1.6268 H       1  LIG1        0.1424
     46 H          -4.9584   10.1071   -1.7348 H       1  LIG1        0.1424
     47 C          -6.1136   11.5881    0.2405 C.3     1  LIG1       -0.0374
     48 H          -6.6892   12.1304    0.9889 H       1  LIG1        0.0278
     49 H          -6.8091   11.1892   -0.5029 H       1  LIG1        0.0278
     50 H          -5.4355   12.2824   -0.2590 H       1  LIG1        0.0278
@<TRIPOS>BOND
     1     6     1    1
     2     5     1   ar
     3     5     4   ar
     4     1     2   ar
     5    33    31    1
     6    46    44    1
     7    45    44    1
     8    36    34    1
     9    32    31    1
    10    44    39    1
    11    31    27    1
    12     4    14    1
    13     4     3   ar
    14     2     7    1
    15     2     3   ar
    16     8     7    1
    17    18    14   ar
    18    18    17   ar
    19    14    15   ar
    20    27    28   ar
    21    27    26   ar
    22    49    47    1
    23    34    37    1
    24    34    28    1
    25    34    35    1
    26     7     9    1
    27    20    19    1
    28     3    10    1
    29    50    47    1
    30    28    29   ar
    31    17    26    1
    32    17    16   ar
    33    15    16   ar
    34    15    19    1
    35    26    30   ar
    36    21    19    1
    37    39    40   ar
    38    39    38   ar
    39    16    22    1
    40    47    40    1
    41    47    48    1
    42    24    22    1
    43    29    30   ar
    44    29    38    1
    45    40    41   ar
    46    22    23    1
    47    22    25    1
    48    38    42   ar
    49    10    12    1
    50    10    11    1
    51    10    13    1
    52    41    42   ar
    53    41    43    1
