@<TRIPOS>MOLECULE
mol_data/opt/m06hf/geoms/mol2/5hi5hi5hi.out
 38 40 0 0 0
SMALL
GASTEIGER

@<TRIPOS>ATOM
      1 C          -1.6738   -1.7355   -1.5135 C.ar    1  LIG1       -0.0028
      2 C          -0.7689   -1.8529   -0.5047 C.ar    1  LIG1        0.0352
      3 C          -0.3678   -0.5735    0.0388 C.ar    1  LIG1       -0.0145
      4 C          -0.9842    0.4648   -0.6015 C.ar    1  LIG1        0.0324
      5 S          -2.0617   -0.0865   -1.8453 S.2     1  LIG1       -0.0939
      6 H          -2.1409   -2.5315   -2.0708 H       1  LIG1        0.0712
      7 N          -0.3028   -3.0502    0.0637 N.pl3   1  LIG1       -0.3573
      8 H          -0.5544   -3.8730   -0.4681 H       1  LIG1        0.1423
      9 H           0.6920   -3.0394    0.2541 H       1  LIG1        0.1423
     10 C           0.5555   -0.4488    1.2264 C.3     1  LIG1       -0.0369
     11 H           0.5046    0.5608    1.6324 H       1  LIG1        0.0278
     12 H           1.5945   -0.6486    0.9484 H       1  LIG1        0.0278
     13 H           0.2528   -1.1698    1.9881 H       1  LIG1        0.0278
     14 C          -0.7918    1.8930   -0.3353 C.ar    1  LIG1        0.0477
     15 C           0.4093    2.5475   -0.3222 C.ar    1  LIG1        0.0436
     16 C           0.2896    3.9456    0.0173 C.ar    1  LIG1       -0.0139
     17 C          -1.0132    4.3048    0.2249 C.ar    1  LIG1        0.0330
     18 S          -2.1035    2.9691    0.0384 S.2     1  LIG1       -0.0850
     19 N           1.6516    1.9431   -0.5462 N.pl3   1  LIG1       -0.3568
     20 H           1.5589    1.0363   -0.9915 H       1  LIG1        0.1424
     21 H           2.2984    2.5364   -1.0517 H       1  LIG1        0.1424
     22 C           1.4869    4.8501    0.1843 C.3     1  LIG1       -0.0368
     23 H           1.1890    5.7658    0.6933 H       1  LIG1        0.0278
     24 H           1.9181    5.1267   -0.7821 H       1  LIG1        0.0278
     25 H           2.2478    4.3326    0.7718 H       1  LIG1        0.0278
     26 C          -1.5069    5.6470    0.5445 C.ar    1  LIG1        0.0471
     27 C          -1.2557    6.7834   -0.1738 C.ar    1  LIG1        0.0430
     28 C          -1.8746    7.9581    0.3978 C.ar    1  LIG1       -0.0222
     29 C          -2.5789    7.6512    1.5167 C.ar    1  LIG1       -0.0190
     30 S          -2.5074    5.9796    1.9243 S.2     1  LIG1       -0.0940
     31 H          -3.1368    8.3358    2.1366 H       1  LIG1        0.0697
     32 N          -0.4574    6.8460   -1.3218 N.pl3   1  LIG1       -0.3569
     33 H          -0.3188    5.9326   -1.7418 H       1  LIG1        0.1424
     34 H          -0.7944    7.5131   -2.0053 H       1  LIG1        0.1424
     35 C          -1.7286    9.3330   -0.2092 C.3     1  LIG1       -0.0374
     36 H          -2.1784   10.0827    0.4398 H       1  LIG1        0.0278
     37 H          -2.2238    9.3823   -1.1827 H       1  LIG1        0.0278
     38 H          -0.6720    9.5709   -0.3472 H       1  LIG1        0.0278
@<TRIPOS>BOND
     1     6     1    1
     2    34    32    1
     3     5     1   ar
     4     5     4   ar
     5    33    32    1
     6     1     2   ar
     7    32    27    1
     8    37    35    1
     9    21    19    1
    10    20    19    1
    11    24    22    1
    12     4    14    1
    13     4     3   ar
    14    19    15    1
    15     2     3   ar
    16     2     7    1
    17     8     7    1
    18    38    35    1
    19    14    15   ar
    20    14    18   ar
    21    15    16   ar
    22    35    28    1
    23    35    36    1
    24    27    28   ar
    25    27    26   ar
    26    16    22    1
    27    16    17   ar
    28    18    17   ar
    29     3    10    1
    30     7     9    1
    31    22    23    1
    32    22    25    1
    33    17    26    1
    34    28    29   ar
    35    26    30   ar
    36    12    10    1
    37    10    11    1
    38    10    13    1
    39    29    30   ar
    40    29    31    1
