@<TRIPOS>MOLECULE
mol_data/opt/m06hf/geoms/mol2/5hi5hi5hi-5hi.out
 50 53 0 0 0
SMALL
GASTEIGER

@<TRIPOS>ATOM
      1 C          -1.0111   -1.6354   -2.2762 C.ar    1  LIG1       -0.0028
      2 C          -0.6485   -1.8221   -0.9785 C.ar    1  LIG1        0.0352
      3 C          -0.4859   -0.5781   -0.2580 C.ar    1  LIG1       -0.0145
      4 C          -0.7212    0.5047   -1.0572 C.ar    1  LIG1        0.0324
      5 S          -1.1567    0.0391   -2.6712 S.2     1  LIG1       -0.0939
      6 H          -1.2105   -2.3928   -3.0170 H       1  LIG1        0.0712
      7 N          -0.5198   -3.0541   -0.3151 N.pl3   1  LIG1       -0.3573
      8 H          -0.5516   -3.8522   -0.9360 H       1  LIG1        0.1423
      9 H           0.2965   -3.0998    0.2830 H       1  LIG1        0.1423
     10 C          -0.1805   -0.5291    1.2198 C.3     1  LIG1       -0.0369
     11 H          -0.3635    0.4736    1.6038 H       1  LIG1        0.0278
     12 H           0.8646   -0.7813    1.4222 H       1  LIG1        0.0278
     13 H          -0.8192   -1.2480    1.7364 H       1  LIG1        0.0278
     14 C          -0.6151    1.9143   -0.6726 C.ar    1  LIG1        0.0477
     15 C           0.4775    2.5015   -0.0967 C.ar    1  LIG1        0.0436
     16 C           0.2767    3.8985    0.2055 C.ar    1  LIG1       -0.0139
     17 C          -0.9631    4.3256   -0.1852 C.ar    1  LIG1        0.0330
     18 S          -1.9082    3.0519   -0.8863 S.2     1  LIG1       -0.0850
     19 N           1.6613    1.8346    0.2369 N.pl3   1  LIG1       -0.3568
     20 H           1.7399    0.9385   -0.2320 H       1  LIG1        0.1424
     21 H           2.4901    2.3996    0.0971 H       1  LIG1        0.1424
     22 C           1.3025    4.7303    0.9371 C.3     1  LIG1       -0.0368
     23 H           0.8408    5.6458    1.3047 H       1  LIG1        0.0278
     24 H           2.1335    5.0114    0.2837 H       1  LIG1        0.0278
     25 H           1.6959    4.1538    1.7765 H       1  LIG1        0.0278
     26 C          -1.4882    5.6881   -0.0659 C.ar    1  LIG1        0.0477
     27 C          -0.8710    6.8226   -0.5183 C.ar    1  LIG1        0.0436
     28 C          -1.6048    8.0269   -0.2103 C.ar    1  LIG1       -0.0139
     29 C          -2.7746    7.7520    0.4428 C.ar    1  LIG1        0.0330
     30 S          -2.9966    6.0541    0.7116 S.2     1  LIG1       -0.0850
     31 N           0.3703    6.8562   -1.1622 N.pl3   1  LIG1       -0.3568
     32 H           0.6329    5.9513   -1.5386 H       1  LIG1        0.1424
     33 H           0.4360    7.5808   -1.8666 H       1  LIG1        0.1424
     34 C          -1.0768    9.4073   -0.5194 C.3     1  LIG1       -0.0368
     35 H          -1.6607   10.1539    0.0174 H       1  LIG1        0.0278
     36 H          -1.1425    9.6330   -1.5879 H       1  LIG1        0.0278
     37 H          -0.0308    9.4683   -0.2129 H       1  LIG1        0.0278
     38 C          -3.7828    8.7242    0.8722 C.ar    1  LIG1        0.0471
     39 C          -4.3842    9.6598    0.0766 C.ar    1  LIG1        0.0430
     40 C          -5.3342   10.4808    0.7933 C.ar    1  LIG1       -0.0222
     41 C          -5.4172   10.1176    2.0987 C.ar    1  LIG1       -0.0190
     42 S          -4.3648    8.8164    2.5067 S.2     1  LIG1       -0.0940
     43 H          -6.0461   10.5614    2.8547 H       1  LIG1        0.0697
     44 N          -4.1046    9.8583   -1.2799 N.pl3   1  LIG1       -0.3569
     45 H          -3.6200    9.0676   -1.6915 H       1  LIG1        0.1424
     46 H          -4.9216   10.1093   -1.8234 H       1  LIG1        0.1424
     47 C          -6.1090   11.5941    0.1298 C.3     1  LIG1       -0.0374
     48 H          -6.6967   12.1381    0.8674 H       1  LIG1        0.0278
     49 H          -6.7920   11.1952   -0.6250 H       1  LIG1        0.0278
     50 H          -5.4214   12.2870   -0.3587 H       1  LIG1        0.0278
@<TRIPOS>BOND
     1     6     1    1
     2     5     1   ar
     3     5     4   ar
     4     1     2   ar
     5    33    31    1
     6    46    44    1
     7    45    44    1
     8    36    34    1
     9    32    31    1
    10    44    39    1
    11    31    27    1
    12     4    14    1
    13     4     3   ar
    14     2     7    1
    15     2     3   ar
    16     8     7    1
    17    18    14   ar
    18    18    17   ar
    19    14    15   ar
    20    49    47    1
    21    34    37    1
    22    34    28    1
    23    34    35    1
    24    27    28   ar
    25    27    26   ar
    26    50    47    1
    27     7     9    1
    28     3    10    1
    29    20    19    1
    30    28    29   ar
    31    17    26    1
    32    17    16   ar
    33    15    16   ar
    34    15    19    1
    35    26    30   ar
    36    39    40   ar
    37    39    38   ar
    38    21    19    1
    39    47    40    1
    40    47    48    1
    41    16    22    1
    42    24    22    1
    43    29    30   ar
    44    29    38    1
    45    40    41   ar
    46    38    42   ar
    47    22    23    1
    48    22    25    1
    49    10    12    1
    50    10    11    1
    51    10    13    1
    52    41    42   ar
    53    41    43    1
