@<TRIPOS>MOLECULE
mol_data/opt/m06hf/geoms/mol2/5hi5hi-5hi.out
 38 40 0 0 0
SMALL
GASTEIGER

@<TRIPOS>ATOM
      1 C          -1.6797   -1.7266   -1.5337 C.ar    1  LIG1       -0.0028
      2 C          -0.7701   -1.8500   -0.5299 C.ar    1  LIG1        0.0352
      3 C          -0.3669   -0.5740    0.0198 C.ar    1  LIG1       -0.0145
      4 C          -0.9865    0.4682   -0.6111 C.ar    1  LIG1        0.0324
      5 S          -2.0695   -0.0755   -1.8534 S.2     1  LIG1       -0.0939
      6 H          -2.1492   -2.5192   -2.0939 H       1  LIG1        0.0712
      7 N          -0.3012   -3.0508    0.0289 N.pl3   1  LIG1       -0.3573
      8 H          -0.5551   -3.8703   -0.5069 H       1  LIG1        0.1423
      9 H           0.6945   -3.0408    0.2148 H       1  LIG1        0.1423
     10 C           0.5618   -0.4565    1.2039 C.3     1  LIG1       -0.0369
     11 H           0.5125    0.5506    1.6164 H       1  LIG1        0.0278
     12 H           1.5996   -0.6543    0.9200 H       1  LIG1        0.0278
     13 H           0.2627   -1.1822    1.9624 H       1  LIG1        0.0278
     14 C          -0.7932    1.8948   -0.3369 C.ar    1  LIG1        0.0477
     15 C           0.4078    2.5495   -0.3251 C.ar    1  LIG1        0.0436
     16 C           0.2894    3.9454    0.0236 C.ar    1  LIG1       -0.0139
     17 C          -1.0125    4.3029    0.2394 C.ar    1  LIG1        0.0330
     18 S          -2.1033    2.9682    0.0495 S.2     1  LIG1       -0.0850
     19 N           1.6493    1.9468   -0.5587 N.pl3   1  LIG1       -0.3568
     20 H           1.5547    1.0428   -1.0092 H       1  LIG1        0.1424
     21 H           2.2936    2.5434   -1.0634 H       1  LIG1        0.1424
     22 C           1.4872    4.8491    0.1908 C.3     1  LIG1       -0.0368
     23 H           1.1915    5.7616    0.7068 H       1  LIG1        0.0278
     24 H           1.9140    5.1318   -0.7758 H       1  LIG1        0.0278
     25 H           2.2509    4.3281    0.7715 H       1  LIG1        0.0278
     26 C          -1.5051    5.6430    0.5697 C.ar    1  LIG1        0.0471
     27 C          -1.2574    6.7839   -0.1427 C.ar    1  LIG1        0.0430
     28 C          -1.8739    7.9548    0.4391 C.ar    1  LIG1       -0.0222
     29 C          -2.5730    7.6408    1.5592 C.ar    1  LIG1       -0.0190
     30 S          -2.4993    5.9667    1.9560 S.2     1  LIG1       -0.0940
     31 H          -3.1283    8.3213    2.1860 H       1  LIG1        0.0697
     32 N          -0.4643    6.8539   -1.2939 N.pl3   1  LIG1       -0.3569
     33 H          -0.3275    5.9432   -1.7202 H       1  LIG1        0.1424
     34 H          -0.8047    7.5252   -1.9717 H       1  LIG1        0.1424
     35 C          -1.7310    9.3336   -0.1599 C.3     1  LIG1       -0.0374
     36 H          -2.1781   10.0791    0.4958 H       1  LIG1        0.0278
     37 H          -2.2307    9.3889   -1.1308 H       1  LIG1        0.0278
     38 H          -0.6751    9.5726   -0.3013 H       1  LIG1        0.0278
@<TRIPOS>BOND
     1     6     1    1
     2    34    32    1
     3     5     1   ar
     4     5     4   ar
     5    33    32    1
     6     1     2   ar
     7    32    27    1
     8    37    35    1
     9    21    19    1
    10    20    19    1
    11    24    22    1
    12     4    14    1
    13     4     3   ar
    14    19    15    1
    15     2     3   ar
    16     2     7    1
    17     8     7    1
    18    14    15   ar
    19    14    18   ar
    20    15    16   ar
    21    38    35    1
    22    35    28    1
    23    35    36    1
    24    27    28   ar
    25    27    26   ar
    26     3    10    1
    27    16    22    1
    28    16    17   ar
    29     7     9    1
    30    18    17   ar
    31    22    23    1
    32    22    25    1
    33    17    26    1
    34    28    29   ar
    35    26    30   ar
    36    12    10    1
    37    10    11    1
    38    10    13    1
    39    29    30   ar
    40    29    31    1
