@<TRIPOS>MOLECULE
mol_data/opt/m06hf/geoms/mol2/5hl.out
 15 15 0 0 0
SMALL
GASTEIGER

@<TRIPOS>ATOM
      1 C          -2.3599   -1.5947   -0.1035 C.ar    1  LIG1        0.0000
      2 C          -1.1223   -2.1148    0.0854 C.ar    1  LIG1        0.0739
      3 C          -0.0967   -1.1014   -0.0595 C.ar    1  LIG1        0.1476
      4 C          -0.5862    0.1315   -0.3430 C.ar    1  LIG1        0.0193
      5 S          -2.3134    0.1037   -0.4473 S.2     1  LIG1       -0.0995
      6 H          -3.3034   -2.1116   -0.0429 H       1  LIG1        0.0713
      7 H          -0.0447    1.0480   -0.5028 H       1  LIG1        0.0731
      8 N          -0.7691   -3.4200    0.4345 N.pl3   1  LIG1       -0.3547
      9 H          -1.3960   -4.1290    0.0806 H       1  LIG1        0.1424
     10 H           0.1991   -3.6228    0.2189 H       1  LIG1        0.1424
     11 O           1.1916   -1.4989    0.0847 O.3     1  LIG1       -0.4927
     12 C           2.1702   -0.4869   -0.0628 C.3     1  LIG1        0.0789
     13 H           2.0201    0.2929    0.6884 H       1  LIG1        0.0660
     14 H           3.1333   -0.9671    0.0856 H       1  LIG1        0.0660
     15 H           2.1167   -0.0536   -1.0652 H       1  LIG1        0.0660
@<TRIPOS>BOND
     1    15    12    1
     2     7     4    1
     3     5     4   ar
     4     5     1   ar
     5     4     3   ar
     6     1     6    1
     7     1     2   ar
     8    12    11    1
     9    12    14    1
    10    12    13    1
    11     3    11    1
    12     3     2   ar
    13     9     8    1
    14     2     8    1
    15    10     8    1
