@<TRIPOS>MOLECULE
mol_data/opt/m06hf/geoms/mol2/5hl5hl5hl5hl.out
 54 57 0 0 0
SMALL
GASTEIGER

@<TRIPOS>ATOM
      1 C          -2.6042   -1.7227    0.0398 C.ar    1  LIG1        0.0006
      2 C          -1.3166   -1.9123    0.4228 C.ar    1  LIG1        0.0746
      3 C          -0.5425   -0.7009    0.2965 C.ar    1  LIG1        0.1559
      4 C          -1.2471    0.3708   -0.1668 C.ar    1  LIG1        0.0713
      5 S          -2.8928   -0.0929   -0.4806 S.2     1  LIG1       -0.0905
      6 H          -3.4106   -2.4364    0.0521 H       1  LIG1        0.0713
      7 N          -0.7204   -3.0551    0.9604 N.pl3   1  LIG1       -0.3547
      8 H          -1.1373   -3.9258    0.6621 H       1  LIG1        0.1424
      9 H           0.2842   -3.0472    0.8335 H       1  LIG1        0.1424
     10 O           0.7876   -0.7168    0.6297 O.3     1  LIG1       -0.4921
     11 C           1.0844   -0.0209    1.8478 C.3     1  LIG1        0.0789
     12 H           2.1585   -0.1084    1.9902 H       1  LIG1        0.0660
     13 H           0.8018    1.0281    1.7502 H       1  LIG1        0.0660
     14 H           0.5442   -0.4903    2.6711 H       1  LIG1        0.0660
     15 C          -0.7818    1.7316   -0.4198 C.ar    1  LIG1        0.0544
     16 C           0.4615    2.1533   -0.8106 C.ar    1  LIG1        0.0831
     17 C           0.4982    3.5819   -1.0126 C.ar    1  LIG1        0.1565
     18 C          -0.6813    4.2217   -0.7783 C.ar    1  LIG1        0.0719
     19 S          -1.8954    3.0777   -0.2884 S.2     1  LIG1       -0.0814
     20 N           1.6221    1.4254   -0.9671 N.pl3   1  LIG1       -0.3542
     21 H           1.5381    0.4196   -0.9188 H       1  LIG1        0.1425
     22 H           2.2569    1.8013   -1.6567 H       1  LIG1        0.1425
     23 O           1.6668    4.1703   -1.4201 O.3     1  LIG1       -0.4921
     24 C           2.3501    4.8640   -0.3689 C.3     1  LIG1        0.0789
     25 H           3.2506    5.2793   -0.8141 H       1  LIG1        0.0660
     26 H           1.7168    5.6645    0.0151 H       1  LIG1        0.0660
     27 H           2.6014    4.1575    0.4238 H       1  LIG1        0.0660
     28 C          -0.9791    5.6460   -0.8774 C.ar    1  LIG1        0.0544
     29 C          -0.4266    6.5854   -1.7079 C.ar    1  LIG1        0.0831
     30 C          -1.0459    7.8762   -1.5315 C.ar    1  LIG1        0.1565
     31 C          -2.0354    7.9128   -0.5993 C.ar    1  LIG1        0.0718
     32 S          -2.2514    6.3382    0.1098 S.2     1  LIG1       -0.0814
     33 N           0.6092    6.4609   -2.6130 N.pl3   1  LIG1       -0.3542
     34 H           0.9569    5.5245   -2.7719 H       1  LIG1        0.1425
     35 H           0.5008    7.0437   -3.4328 H       1  LIG1        0.1425
     36 O          -0.6562    8.9472   -2.2849 O.3     1  LIG1       -0.4921
     37 C           0.4887    9.6157   -1.7391 C.3     1  LIG1        0.0789
     38 H           0.7237   10.4258   -2.4249 H       1  LIG1        0.0660
     39 H           0.2441   10.0149   -0.7538 H       1  LIG1        0.0660
     40 H           1.3222    8.9145   -1.6712 H       1  LIG1        0.0660
     41 C          -2.8399    9.0686   -0.2285 C.ar    1  LIG1        0.0538
     42 C          -3.6079    9.2255    0.8921 C.ar    1  LIG1        0.0824
     43 C          -4.3080   10.4883    0.8895 C.ar    1  LIG1        0.1482
     44 C          -4.0460   11.2474   -0.1997 C.ar    1  LIG1        0.0199
     45 S          -2.9418   10.4703   -1.2709 S.2     1  LIG1       -0.0904
     46 H          -4.4366   12.2301   -0.4092 H       1  LIG1        0.0731
     47 N          -3.7952    8.3366    1.9473 N.pl3   1  LIG1       -0.3542
     48 H          -2.9982    7.7465    2.1542 H       1  LIG1        0.1425
     49 H          -4.1375    8.8167    2.7729 H       1  LIG1        0.1425
     50 O          -5.1378   10.8153    1.9266 O.3     1  LIG1       -0.4927
     51 C          -6.4560   10.2841    1.7583 C.3     1  LIG1        0.0789
     52 H          -7.0158   10.5632    2.6478 H       1  LIG1        0.0660
     53 H          -6.9173   10.7171    0.8695 H       1  LIG1        0.0660
     54 H          -6.4138    9.1975    1.6604 H       1  LIG1        0.0660
@<TRIPOS>BOND
     1    35    33    1
     2    34    33    1
     3    33    29    1
     4    38    37    1
     5    36    37    1
     6    36    30    1
     7    37    40    1
     8    37    39    1
     9    29    30   ar
    10    29    28   ar
    11    22    20    1
    12    30    31   ar
    13    23    17    1
    14    23    24    1
    15    45    41   ar
    16    45    44   ar
    17    17    16   ar
    18    17    18   ar
    19    20    21    1
    20    20    16    1
    21    28    18    1
    22    28    32   ar
    23    25    24    1
    24    16    15   ar
    25    18    19   ar
    26    31    41    1
    27    31    32   ar
    28     5     4   ar
    29     5     1   ar
    30    15    19   ar
    31    15     4    1
    32    46    44    1
    33    24    26    1
    34    24    27    1
    35    41    42   ar
    36    44    43   ar
    37     4     3   ar
    38     1     6    1
    39     1     2   ar
    40     3     2   ar
    41     3    10    1
    42     2     7    1
    43    10    11    1
    44     8     7    1
    45     9     7    1
    46    53    51    1
    47    43    42   ar
    48    43    50    1
    49    42    47    1
    50    54    51    1
    51    13    11    1
    52    51    50    1
    53    51    52    1
    54    11    12    1
    55    11    14    1
    56    47    48    1
    57    47    49    1
