@<TRIPOS>MOLECULE
mol_data/opt/m06hf/geoms/mol2/5hl5hl5hl-5hl-.out
 54 57 0 0 0
SMALL
GASTEIGER

@<TRIPOS>ATOM
      1 C          -2.1821   -2.1662   -1.1617 C.ar    1  LIG1        0.0006
      2 C          -0.9702   -2.3378   -0.5736 C.ar    1  LIG1        0.0746
      3 C          -0.3121   -1.0756   -0.3402 C.ar    1  LIG1        0.1559
      4 C          -1.0271    0.0149   -0.7417 C.ar    1  LIG1        0.0713
      5 S          -2.5329   -0.4928   -1.4450 S.2     1  LIG1       -0.0905
      6 H          -2.9017   -2.9221   -1.4275 H       1  LIG1        0.0713
      7 N          -0.3687   -3.5181   -0.1321 N.pl3   1  LIG1       -0.3547
      8 H          -0.6276   -4.3425   -0.6561 H       1  LIG1        0.1424
      9 H           0.6358   -3.4164   -0.0494 H       1  LIG1        0.1424
     10 O           0.9295   -1.0627    0.2409 O.3     1  LIG1       -0.4921
     11 C           0.9250   -0.5810    1.5916 C.3     1  LIG1        0.0789
     12 H           1.9586   -0.6112    1.9260 H       1  LIG1        0.0660
     13 H           0.5504    0.4432    1.6155 H       1  LIG1        0.0660
     14 H           0.2995   -1.2330    2.2031 H       1  LIG1        0.0660
     15 C          -0.6647    1.4266   -0.6553 C.ar    1  LIG1        0.0544
     16 C           0.5795    1.9953   -0.7178 C.ar    1  LIG1        0.0831
     17 C           0.5092    3.4348   -0.6397 C.ar    1  LIG1        0.1565
     18 C          -0.7512    3.9378   -0.5146 C.ar    1  LIG1        0.0719
     19 S          -1.9115    2.6427   -0.4840 S.2     1  LIG1       -0.0814
     20 N           1.8148    1.3874   -0.7775 N.pl3   1  LIG1       -0.3542
     21 H           1.8264    0.3873   -0.9209 H       1  LIG1        0.1425
     22 H           2.5260    1.9308   -1.2441 H       1  LIG1        0.1425
     23 O           1.6695    4.1621   -0.6990 O.3     1  LIG1       -0.4921
     24 C           2.0627    4.7074    0.5668 C.3     1  LIG1        0.0789
     25 H           2.9961    5.2363    0.3917 H       1  LIG1        0.0660
     26 H           1.2987    5.4003    0.9214 H       1  LIG1        0.0660
     27 H           2.2065    3.8937    1.2792 H       1  LIG1        0.0660
     28 C          -1.1722    5.3300   -0.4006 C.ar    1  LIG1        0.0544
     29 C          -0.5789    6.4512   -0.9206 C.ar    1  LIG1        0.0831
     30 C          -1.3496    7.6384   -0.6337 C.ar    1  LIG1        0.1565
     31 C          -2.4845    7.4201    0.0858 C.ar    1  LIG1        0.0718
     32 S          -2.6526    5.7296    0.4469 S.2     1  LIG1       -0.0814
     33 N           0.6126    6.5791   -1.5951 N.pl3   1  LIG1       -0.3542
     34 H           1.0815    5.7299   -1.8768 H       1  LIG1        0.1425
     35 H           0.6601    7.3723   -2.2177 H       1  LIG1        0.1425
     36 O          -0.9080    8.8463   -1.1060 O.3     1  LIG1       -0.4921
     37 C          -0.4006    9.7153   -0.0857 C.3     1  LIG1        0.0789
     38 H          -0.0882   10.6248   -0.5921 H       1  LIG1        0.0660
     39 H          -1.1883    9.9369    0.6357 H       1  LIG1        0.0660
     40 H           0.4472    9.2356    0.4058 H       1  LIG1        0.0660
     41 C          -3.4700    8.3951    0.5448 C.ar    1  LIG1        0.0538
     42 C          -3.8657    9.5558   -0.0649 C.ar    1  LIG1        0.0824
     43 C          -4.9185   10.2143    0.6804 C.ar    1  LIG1        0.1482
     44 C          -5.2891    9.5548    1.8012 C.ar    1  LIG1        0.0199
     45 S          -4.3617    8.1182    2.0240 S.2     1  LIG1       -0.0904
     46 H          -6.0530    9.8488    2.5020 H       1  LIG1        0.0731
     47 N          -3.3892   10.1478   -1.2219 N.pl3   1  LIG1       -0.3542
     48 H          -2.7254    9.6026   -1.7557 H       1  LIG1        0.1425
     49 H          -4.1111   10.6101   -1.7598 H       1  LIG1        0.1425
     50 O          -5.4592   11.3828    0.2240 O.3     1  LIG1       -0.4927
     51 C          -4.6580   12.5219    0.5525 C.3     1  LIG1        0.0789
     52 H          -5.1417   13.3799    0.0920 H       1  LIG1        0.0660
     53 H          -4.6229   12.6463    1.6363 H       1  LIG1        0.0660
     54 H          -3.6492   12.3942    0.1553 H       1  LIG1        0.0660
@<TRIPOS>BOND
     1    35    33    1
     2    34    33    1
     3    49    47    1
     4    48    47    1
     5    33    29    1
     6     5     1   ar
     7     5     4   ar
     8     6     1    1
     9    22    20    1
    10    47    42    1
    11     1     2   ar
    12    36    30    1
    13    36    37    1
    14    21    20    1
    15    29    30   ar
    16    29    28   ar
    17    20    16    1
    18     4    15    1
    19     4     3   ar
    20    16    15   ar
    21    16    17   ar
    22    23    17    1
    23    23    24    1
    24     8     7    1
    25    15    19   ar
    26    17    18   ar
    27    30    31   ar
    28    38    37    1
    29     2     3   ar
    30     2     7    1
    31    18    19   ar
    32    18    28    1
    33    28    32   ar
    34     3    10    1
    35     7     9    1
    36    37    40    1
    37    37    39    1
    38    42    41   ar
    39    42    43   ar
    40    31    32   ar
    41    31    41    1
    42    52    51    1
    43    54    51    1
    44    50    51    1
    45    50    43    1
    46    10    11    1
    47    25    24    1
    48    41    45   ar
    49    51    53    1
    50    24    26    1
    51    24    27    1
    52    43    44   ar
    53    11    13    1
    54    11    12    1
    55    11    14    1
    56    44    45   ar
    57    44    46    1
