@<TRIPOS>MOLECULE
mol_data/opt/m06hf/geoms/mol2/5hl5hl-5hl-5hl.out
 54 57 0 0 0
SMALL
GASTEIGER

@<TRIPOS>ATOM
      1 C          -2.1229   -2.1443   -1.3210 C.ar    1  LIG1        0.0006
      2 C          -0.9437   -2.3276   -0.6730 C.ar    1  LIG1        0.0746
      3 C          -0.2991   -1.0703   -0.3820 C.ar    1  LIG1        0.1559
      4 C          -0.9922    0.0279   -0.8006 C.ar    1  LIG1        0.0713
      5 S          -2.4587   -0.4657   -1.5916 S.2     1  LIG1       -0.0905
      6 H          -2.8274   -2.8947   -1.6382 H       1  LIG1        0.0713
      7 N          -0.3661   -3.5163   -0.2220 N.pl3   1  LIG1       -0.3547
      8 H          -0.5968   -4.3306   -0.7740 H       1  LIG1        0.1424
      9 H           0.6326   -3.4168   -0.0845 H       1  LIG1        0.1424
     10 O           0.9101   -1.0690    0.2640 O.3     1  LIG1       -0.4921
     11 C           0.8341   -0.6122    1.6211 C.3     1  LIG1        0.0789
     12 H           1.8486   -0.6493    2.0090 H       1  LIG1        0.0660
     13 H           0.4586    0.4117    1.6440 H       1  LIG1        0.0660
     14 H           0.1773   -1.2748    2.1867 H       1  LIG1        0.0660
     15 C          -0.6352    1.4374   -0.6694 C.ar    1  LIG1        0.0544
     16 C           0.6105    2.0063   -0.6556 C.ar    1  LIG1        0.0831
     17 C           0.5359    3.4441   -0.5550 C.ar    1  LIG1        0.1565
     18 C          -0.7295    3.9458   -0.4874 C.ar    1  LIG1        0.0719
     19 S          -1.8895    2.6512   -0.5418 S.2     1  LIG1       -0.0814
     20 N           1.8474    1.3986   -0.6612 N.pl3   1  LIG1       -0.3542
     21 H           1.8667    0.4013   -0.8220 H       1  LIG1        0.1425
     22 H           2.5821    1.9500   -1.0795 H       1  LIG1        0.1425
     23 O           1.6976    4.1715   -0.5396 O.3     1  LIG1       -0.4921
     24 C           2.0233    4.6933    0.7550 C.3     1  LIG1        0.0789
     25 H           2.9645    5.2245    0.6391 H       1  LIG1        0.0660
     26 H           1.2415    5.3801    1.0813 H       1  LIG1        0.0660
     27 H           2.1295    3.8665    1.4589 H       1  LIG1        0.0660
     28 C          -1.1561    5.3359   -0.3703 C.ar    1  LIG1        0.0544
     29 C          -0.5365    6.4660   -0.8376 C.ar    1  LIG1        0.0831
     30 C          -1.3215    7.6484   -0.5701 C.ar    1  LIG1        0.1565
     31 C          -2.4928    7.4178    0.0844 C.ar    1  LIG1        0.0718
     32 S          -2.6793    5.7211    0.4050 S.2     1  LIG1       -0.0814
     33 N           0.6889    6.6053   -1.4458 N.pl3   1  LIG1       -0.3542
     34 H           1.1723    5.7610   -1.7179 H       1  LIG1        0.1425
     35 H           0.7691    7.4098   -2.0504 H       1  LIG1        0.1425
     36 O          -0.8558    8.8644   -0.9962 O.3     1  LIG1       -0.4921
     37 C          -0.4032    9.7141    0.0652 C.3     1  LIG1        0.0789
     38 H          -0.0647   10.6325   -0.4073 H       1  LIG1        0.0660
     39 H          -1.2280    9.9231    0.7479 H       1  LIG1        0.0660
     40 H           0.4175    9.2249    0.5919 H       1  LIG1        0.0660
     41 C          -3.5013    8.3850    0.5085 C.ar    1  LIG1        0.0538
     42 C          -3.8645    9.5570   -0.0999 C.ar    1  LIG1        0.0824
     43 C          -4.9553   10.2025    0.6007 C.ar    1  LIG1        0.1482
     44 C          -5.3845    9.5229    1.6882 C.ar    1  LIG1        0.0199
     45 S          -4.4698    8.0817    1.9333 S.2     1  LIG1       -0.0904
     46 H          -6.1843    9.8045    2.3529 H       1  LIG1        0.0731
     47 N          -3.3277   10.1697   -1.2191 N.pl3   1  LIG1       -0.3542
     48 H          -2.6365    9.6338   -1.7269 H       1  LIG1        0.1425
     49 H          -4.0203   10.6423   -1.7857 H       1  LIG1        0.1425
     50 O          -5.4714   11.3795    0.1379 O.3     1  LIG1       -0.4927
     51 C          -4.6889   12.5118    0.5291 C.3     1  LIG1        0.0789
     52 H          -5.1479   13.3785    0.0595 H       1  LIG1        0.0660
     53 H          -4.7111   12.6163    1.6154 H       1  LIG1        0.0660
     54 H          -3.6605   12.3906    0.1834 H       1  LIG1        0.0660
@<TRIPOS>BOND
     1    35    33    1
     2    49    47    1
     3    48    47    1
     4    34    33    1
     5     6     1    1
     6     5     1   ar
     7     5     4   ar
     8    33    29    1
     9     1     2   ar
    10    47    42    1
    11    22    20    1
    12    36    30    1
    13    36    37    1
    14    29    30   ar
    15    29    28   ar
    16    21    20    1
    17     4    15    1
    18     4     3   ar
    19     8     7    1
    20     2     3   ar
    21     2     7    1
    22    15    16   ar
    23    15    19   ar
    24    20    16    1
    25    16    17   ar
    26    30    31   ar
    27    17    23    1
    28    17    18   ar
    29    19    18   ar
    30    23    24    1
    31    18    28    1
    32    38    37    1
    33     3    10    1
    34    28    32   ar
    35     7     9    1
    36    42    41   ar
    37    42    43   ar
    38    52    51    1
    39    37    40    1
    40    37    39    1
    41    31    32   ar
    42    31    41    1
    43    50    51    1
    44    50    43    1
    45    54    51    1
    46    10    11    1
    47    41    45   ar
    48    51    53    1
    49    43    44   ar
    50    25    24    1
    51    24    26    1
    52    24    27    1
    53    11    13    1
    54    11    12    1
    55    11    14    1
    56    44    45   ar
    57    44    46    1
