@<TRIPOS>MOLECULE
mol_data/opt/m06hf/geoms/mol2/5hl5hl.out
 28 29 0 0 0
SMALL
GASTEIGER

@<TRIPOS>ATOM
      1 C          -1.0473   -1.8525    1.5838 C.ar    1  LIG1        0.0006
      2 C          -0.9585   -2.1251    0.2571 C.ar    1  LIG1        0.0746
      3 C          -0.4858   -0.9830   -0.4859 C.ar    1  LIG1        0.1559
      4 C          -0.2195    0.1123    0.2764 C.ar    1  LIG1        0.0712
      5 S          -0.5772   -0.2214    1.9452 S.2     1  LIG1       -0.0905
      6 H          -1.3562   -2.5124    2.3772 H       1  LIG1        0.0713
      7 N          -1.2017   -3.3244   -0.4174 N.pl3   1  LIG1       -0.3547
      8 H          -1.8266   -3.9551    0.0657 H       1  LIG1        0.1424
      9 H          -1.4993   -3.1561   -1.3719 H       1  LIG1        0.1424
     10 O          -0.3506   -1.0391   -1.8450 O.3     1  LIG1       -0.4921
     11 C           0.9532   -1.4704   -2.2560 C.3     1  LIG1        0.0789
     12 H           0.9368   -1.4928   -3.3430 H       1  LIG1        0.0660
     13 H           1.7017   -0.7598   -1.9044 H       1  LIG1        0.0660
     14 H           1.1531   -2.4655   -1.8546 H       1  LIG1        0.0660
     15 C           0.2518    1.4114   -0.1920 C.ar    1  LIG1        0.0537
     16 C           0.9256    2.3588    0.5259 C.ar    1  LIG1        0.0824
     17 C           1.1979    3.5376   -0.2629 C.ar    1  LIG1        0.1482
     18 C           0.7432    3.4519   -1.5347 C.ar    1  LIG1        0.0199
     19 S          -0.0308    1.9403   -1.8342 S.2     1  LIG1       -0.0904
     20 H           0.8476    4.1947   -2.3085 H       1  LIG1        0.0731
     21 N           1.3206    2.3140    1.8616 N.pl3   1  LIG1       -0.3542
     22 H           1.5005    1.3815    2.2140 H       1  LIG1        0.1425
     23 H           2.0945    2.9463    2.0356 H       1  LIG1        0.1425
     24 O           1.8673    4.5956    0.2880 O.3     1  LIG1       -0.4927
     25 C           1.0031    5.4774    1.0112 C.3     1  LIG1        0.0789
     26 H           1.6422    6.2380    1.4530 H       1  LIG1        0.0660
     27 H           0.2870    5.9357    0.3271 H       1  LIG1        0.0660
     28 H           0.4710    4.9276    1.7900 H       1  LIG1        0.0660
@<TRIPOS>BOND
     1    12    11    1
     2    20    18    1
     3    11    13    1
     4    11    14    1
     5    11    10    1
     6    10     3    1
     7    19    18   ar
     8    19    15   ar
     9    18    17   ar
    10     9     7    1
    11     3     2   ar
    12     3     4   ar
    13     7     8    1
    14     7     2    1
    15    17    24    1
    16    17    16   ar
    17    15     4    1
    18    15    16   ar
    19     2     1   ar
    20     4     5   ar
    21    24    25    1
    22    27    25    1
    23    16    21    1
    24    25    26    1
    25    25    28    1
    26     1     5   ar
    27     1     6    1
    28    21    23    1
    29    21    22    1
