@<TRIPOS>MOLECULE
mol_data/opt/m06hf/geoms/mol2/5hl5hl-5hl-.out
 41 43 0 0 0
SMALL
GASTEIGER

@<TRIPOS>ATOM
      1 C          -2.4862   -2.0340   -0.5106 C.ar    1  LIG1        0.0006
      2 C          -1.1583   -2.2857   -0.3836 C.ar    1  LIG1        0.0746
      3 C          -0.3940   -1.0650   -0.3038 C.ar    1  LIG1        0.1559
      4 C          -1.1428    0.0738   -0.3638 C.ar    1  LIG1        0.0713
      5 S          -2.8225   -0.3338   -0.5451 S.2     1  LIG1       -0.0905
      6 H          -3.2921   -2.7463   -0.5692 H       1  LIG1        0.0713
      7 N          -0.5055   -3.5142   -0.2552 N.pl3   1  LIG1       -0.3547
      8 H          -0.9805   -4.2887   -0.6975 H       1  LIG1        0.1424
      9 H           0.4657   -3.4503   -0.5367 H       1  LIG1        0.1424
     10 O           0.9700   -1.1328   -0.1818 O.3     1  LIG1       -0.4921
     11 C           1.4431   -0.7939    1.1282 C.3     1  LIG1        0.0789
     12 H           2.5247   -0.8981    1.0955 H       1  LIG1        0.0660
     13 H           1.1702    0.2355    1.3638 H       1  LIG1        0.0660
     14 H           1.0104   -1.4821    1.8557 H       1  LIG1        0.0660
     15 C          -0.6972    1.4630   -0.3137 C.ar    1  LIG1        0.0544
     16 C           0.4840    1.9991   -0.7522 C.ar    1  LIG1        0.0831
     17 C           0.5161    3.4311   -0.5720 C.ar    1  LIG1        0.1565
     18 C          -0.6054    3.9623   -0.0102 C.ar    1  LIG1        0.0718
     19 S          -1.7574    2.7015    0.3256 S.2     1  LIG1       -0.0814
     20 N           1.5993    1.3666   -1.2574 N.pl3   1  LIG1       -0.3542
     21 H           1.5115    0.3821   -1.4677 H       1  LIG1        0.1425
     22 H           2.1435    1.9291   -1.8954 H       1  LIG1        0.1425
     23 O           1.6296    4.1267   -0.9656 O.3     1  LIG1       -0.4921
     24 C           2.4709    4.5138    0.1287 C.3     1  LIG1        0.0789
     25 H           3.3115    5.0461   -0.3087 H       1  LIG1        0.0660
     26 H           1.9180    5.1693    0.8024 H       1  LIG1        0.0660
     27 H           2.8104    3.6187    0.6525 H       1  LIG1        0.0660
     28 C          -0.8902    5.3536    0.3262 C.ar    1  LIG1        0.0538
     29 C          -0.4302    6.4900   -0.2851 C.ar    1  LIG1        0.0824
     30 C          -1.0046    7.6809    0.3161 C.ar    1  LIG1        0.1482
     31 C          -1.8546    7.4254    1.3383 C.ar    1  LIG1        0.0199
     32 S          -1.9859    5.7256    1.6411 S.2     1  LIG1       -0.0904
     33 H          -2.4048    8.1278    1.9413 H       1  LIG1        0.0731
     34 N           0.4689    6.6281   -1.3090 N.pl3   1  LIG1       -0.3542
     35 H           0.8013    5.7947   -1.7702 H       1  LIG1        0.1425
     36 H           0.4147    7.4882   -1.8315 H       1  LIG1        0.1425
     37 O          -0.6477    8.8706   -0.2250 O.3     1  LIG1       -0.4927
     38 C          -1.2267   10.0169    0.3708 C.3     1  LIG1        0.0789
     39 H          -0.8463   10.8742   -0.1770 H       1  LIG1        0.0660
     40 H          -2.3160    9.9733    0.2903 H       1  LIG1        0.0660
     41 H          -0.9330   10.0832    1.4216 H       1  LIG1        0.0660
@<TRIPOS>BOND
     1    22    20    1
     2    36    34    1
     3    35    34    1
     4    21    20    1
     5    34    29    1
     6    20    16    1
     7    23    17    1
     8    23    24    1
     9    16    17   ar
    10    16    15   ar
    11     8     7    1
    12    17    18   ar
    13     6     1    1
    14     5     1   ar
    15     5     4   ar
    16     9     7    1
    17     1     2   ar
    18     2     3   ar
    19     2     7    1
    20     4    15    1
    21     4     3   ar
    22    15    19   ar
    23    25    24    1
    24     3    10    1
    25    29    30   ar
    26    29    28   ar
    27    37    30    1
    28    37    38    1
    29    10    11    1
    30    39    38    1
    31    18    19   ar
    32    18    28    1
    33    24    27    1
    34    24    26    1
    35    40    38    1
    36    30    31   ar
    37    28    32   ar
    38    38    41    1
    39    12    11    1
    40    11    13    1
    41    11    14    1
    42    31    32   ar
    43    31    33    1
