@<TRIPOS>MOLECULE
mol_data/opt/m06hf/geoms/mol2/5hl5hl5hl-5hl.out
 54 57 0 0 0
SMALL
GASTEIGER

@<TRIPOS>ATOM
      1 C          -2.1291   -2.1467   -1.3219 C.ar    1  LIG1        0.0006
      2 C          -0.9510   -2.3296   -0.6719 C.ar    1  LIG1        0.0746
      3 C          -0.3052   -1.0723   -0.3836 C.ar    1  LIG1        0.1559
      4 C          -0.9965    0.0255   -0.8062 C.ar    1  LIG1        0.0713
      5 S          -2.4625   -0.4685   -1.5977 S.2     1  LIG1       -0.0905
      6 H          -2.8340   -2.8971   -1.6379 H       1  LIG1        0.0713
      7 N          -0.3753   -3.5177   -0.2169 N.pl3   1  LIG1       -0.3547
      8 H          -0.6063   -4.3333   -0.7668 H       1  LIG1        0.1424
      9 H           0.6233   -3.4190   -0.0784 H       1  LIG1        0.1424
     10 O           0.9031   -1.0706    0.2639 O.3     1  LIG1       -0.4921
     11 C           0.8260   -0.6098    1.6196 C.3     1  LIG1        0.0789
     12 H           1.8400   -0.6471    2.0089 H       1  LIG1        0.0660
     13 H           0.4516    0.4145    1.6392 H       1  LIG1        0.0660
     14 H           0.1677   -1.2700    2.1863 H       1  LIG1        0.0660
     15 C          -0.6380    1.4351   -0.6785 C.ar    1  LIG1        0.0544
     16 C           0.6084    2.0025   -0.6647 C.ar    1  LIG1        0.0831
     17 C           0.5352    3.4407   -0.5682 C.ar    1  LIG1        0.1565
     18 C          -0.7296    3.9440   -0.5036 C.ar    1  LIG1        0.0719
     19 S          -1.8910    2.6506   -0.5559 S.2     1  LIG1       -0.0814
     20 N           1.8445    1.3934   -0.6670 N.pl3   1  LIG1       -0.3542
     21 H           1.8629    0.3956   -0.8250 H       1  LIG1        0.1425
     22 H           2.5804    1.9427   -1.0860 H       1  LIG1        0.1425
     23 O           1.6977    4.1668   -0.5533 O.3     1  LIG1       -0.4921
     24 C           2.0224    4.6918    0.7402 C.3     1  LIG1        0.0789
     25 H           2.9644    5.2216    0.6240 H       1  LIG1        0.0660
     26 H           1.2410    5.3804    1.0636 H       1  LIG1        0.0660
     27 H           2.1267    3.8669    1.4466 H       1  LIG1        0.0660
     28 C          -1.1548    5.3350   -0.3910 C.ar    1  LIG1        0.0544
     29 C          -0.5332    6.4630   -0.8606 C.ar    1  LIG1        0.0831
     30 C          -1.3172    7.6470   -0.5974 C.ar    1  LIG1        0.1565
     31 C          -2.4896    7.4196    0.0562 C.ar    1  LIG1        0.0718
     32 S          -2.6785    5.7241    0.3814 S.2     1  LIG1       -0.0814
     33 N           0.6931    6.5993   -1.4677 N.pl3   1  LIG1       -0.3542
     34 H           1.1758    5.7536   -1.7368 H       1  LIG1        0.1425
     35 H           0.7750    7.4019   -2.0743 H       1  LIG1        0.1425
     36 O          -0.8495    8.8613   -1.0263 O.3     1  LIG1       -0.4921
     37 C          -0.3972    9.7135    0.0333 C.3     1  LIG1        0.0789
     38 H          -0.0571   10.6302   -0.4413 H       1  LIG1        0.0660
     39 H          -1.2226    9.9253    0.7144 H       1  LIG1        0.0660
     40 H           0.4222    9.2248    0.5624 H       1  LIG1        0.0660
     41 C          -3.4975    8.3892    0.4763 C.ar    1  LIG1        0.0538
     42 C          -3.8586    9.5599   -0.1358 C.ar    1  LIG1        0.0824
     43 C          -4.9495   10.2087    0.5616 C.ar    1  LIG1        0.1482
     44 C          -5.3808    9.5326    1.6505 C.ar    1  LIG1        0.0199
     45 S          -4.4682    8.0910    1.9007 S.2     1  LIG1       -0.0904
     46 H          -6.1812    9.8170    2.3133 H       1  LIG1        0.0731
     47 N          -3.3196   10.1689   -1.2560 N.pl3   1  LIG1       -0.3542
     48 H          -2.6285    9.6308   -1.7615 H       1  LIG1        0.1425
     49 H          -4.0109   10.6407   -1.8248 H       1  LIG1        0.1425
     50 O          -5.4636   11.3850    0.0949 O.3     1  LIG1       -0.4927
     51 C          -4.6803   12.5175    0.4839 C.3     1  LIG1        0.0789
     52 H          -5.1376   13.3834    0.0113 H       1  LIG1        0.0660
     53 H          -4.7038   12.6251    1.5698 H       1  LIG1        0.0660
     54 H          -3.6516   12.3941    0.1399 H       1  LIG1        0.0660
@<TRIPOS>BOND
     1    35    33    1
     2    49    47    1
     3    48    47    1
     4    34    33    1
     5     6     1    1
     6     5     1   ar
     7     5     4   ar
     8    33    29    1
     9     1     2   ar
    10    47    42    1
    11    22    20    1
    12    36    30    1
    13    36    37    1
    14    29    30   ar
    15    29    28   ar
    16    21    20    1
    17     4    15    1
    18     4     3   ar
    19     8     7    1
    20    15    16   ar
    21    15    19   ar
    22     2     3   ar
    23     2     7    1
    24    20    16    1
    25    16    17   ar
    26    30    31   ar
    27    17    23    1
    28    17    18   ar
    29    19    18   ar
    30    23    24    1
    31    18    28    1
    32    38    37    1
    33    28    32   ar
    34     3    10    1
    35     7     9    1
    36    42    41   ar
    37    42    43   ar
    38    52    51    1
    39    37    40    1
    40    37    39    1
    41    31    32   ar
    42    31    41    1
    43    50    51    1
    44    50    43    1
    45    54    51    1
    46    10    11    1
    47    41    45   ar
    48    51    53    1
    49    43    44   ar
    50    25    24    1
    51    24    26    1
    52    24    27    1
    53    11    13    1
    54    11    12    1
    55    11    14    1
    56    44    45   ar
    57    44    46    1
