@<TRIPOS>MOLECULE
mol_data/opt/m06hf/geoms/mol2/5hl5hl5hl5hl-.out
 54 57 0 0 0
SMALL
GASTEIGER

@<TRIPOS>ATOM
      1 C          -2.3341   -2.0933   -1.1217 C.ar    1  LIG1        0.0006
      2 C          -1.1228   -2.3070   -0.5469 C.ar    1  LIG1        0.0746
      3 C          -0.4141   -1.0692   -0.3296 C.ar    1  LIG1        0.1559
      4 C          -1.0917    0.0452   -0.7299 C.ar    1  LIG1        0.0713
      5 S          -2.6254   -0.4090   -1.4110 S.2     1  LIG1       -0.0905
      6 H          -3.0851   -2.8230   -1.3732 H       1  LIG1        0.0713
      7 N          -0.5605   -3.5069   -0.1057 N.pl3   1  LIG1       -0.3547
      8 H          -0.8556   -4.3232   -0.6231 H       1  LIG1        0.1424
      9 H           0.4480   -3.4419   -0.0352 H       1  LIG1        0.1424
     10 O           0.8343   -1.1019    0.2359 O.3     1  LIG1       -0.4921
     11 C           0.8677   -0.6069    1.5811 C.3     1  LIG1        0.0789
     12 H           1.9029   -0.6806    1.9039 H       1  LIG1        0.0660
     13 H           0.5407    0.4335    1.5987 H       1  LIG1        0.0660
     14 H           0.2208   -1.2236    2.2067 H       1  LIG1        0.0660
     15 C          -0.6720    1.4420   -0.6630 C.ar    1  LIG1        0.0544
     16 C           0.5936    1.9587   -0.7456 C.ar    1  LIG1        0.0831
     17 C           0.5837    3.4006   -0.6822 C.ar    1  LIG1        0.1565
     18 C          -0.6531    3.9571   -0.5487 C.ar    1  LIG1        0.0719
     19 S          -1.8661    2.7118   -0.4956 S.2     1  LIG1       -0.0814
     20 N           1.8029    1.3017   -0.8138 N.pl3   1  LIG1       -0.3542
     21 H           1.7746    0.3017   -0.9543 H       1  LIG1        0.1425
     22 H           2.5310    1.8163   -1.2869 H       1  LIG1        0.1425
     23 O           1.7722    4.0780   -0.7644 O.3     1  LIG1       -0.4921
     24 C           2.2004    4.6305    0.4866 C.3     1  LIG1        0.0789
     25 H           3.1484    5.1248    0.2903 H       1  LIG1        0.0660
     26 H           1.4653    5.3545    0.8398 H       1  LIG1        0.0660
     27 H           2.3268    3.8241    1.2108 H       1  LIG1        0.0660
     28 C          -1.0120    5.3669   -0.4452 C.ar    1  LIG1        0.0544
     29 C          -0.3805    6.4545   -0.9905 C.ar    1  LIG1        0.0831
     30 C          -1.0878    7.6795   -0.6994 C.ar    1  LIG1        0.1565
     31 C          -2.2158    7.5221    0.0475 C.ar    1  LIG1        0.0718
     32 S          -2.4547    5.8429    0.4274 S.2     1  LIG1       -0.0814
     33 N           0.8010    6.5202   -1.6912 N.pl3   1  LIG1       -0.3542
     34 H           1.2214    5.6478   -1.9783 H       1  LIG1        0.1425
     35 H           0.8724    7.3063   -2.3205 H       1  LIG1        0.1425
     36 O          -0.5954    8.8606   -1.1889 O.3     1  LIG1       -0.4921
     37 C          -0.0169    9.7033   -0.1835 C.3     1  LIG1        0.0789
     38 H           0.3199   10.5993   -0.6982 H       1  LIG1        0.0660
     39 H          -0.7704    9.9589    0.5621 H       1  LIG1        0.0660
     40 H           0.8233    9.1836    0.2796 H       1  LIG1        0.0660
     41 C          -3.1475    8.5393    0.5240 C.ar    1  LIG1        0.0538
     42 C          -3.4901    9.7231   -0.0729 C.ar    1  LIG1        0.0824
     43 C          -4.5113   10.4214    0.6868 C.ar    1  LIG1        0.1482
     44 C          -4.9040    9.7709    1.8070 C.ar    1  LIG1        0.0199
     45 S          -4.0342    8.2868    2.0133 S.2     1  LIG1       -0.0904
     46 H          -5.6407   10.0718    2.5322 H       1  LIG1        0.0731
     47 N          -2.9906   10.3008   -1.2132 N.pl3   1  LIG1       -0.3542
     48 H          -2.3638    9.7505   -1.7816 H       1  LIG1        0.1425
     49 H          -3.6105   10.9473   -1.6769 H       1  LIG1        0.1425
     50 O          -4.9548   11.5966    0.1786 O.3     1  LIG1       -0.4927
     51 C          -6.0057   12.2195    0.8946 C.3     1  LIG1        0.0789
     52 H          -6.2460   13.1320    0.3560 H       1  LIG1        0.0660
     53 H          -6.8778   11.5619    0.9308 H       1  LIG1        0.0660
     54 H          -5.6785   12.4607    1.9089 H       1  LIG1        0.0660
@<TRIPOS>BOND
     1    35    33    1
     2    34    33    1
     3    48    47    1
     4    33    29    1
     5    49    47    1
     6     5     1   ar
     7     5     4   ar
     8     6     1    1
     9    22    20    1
    10    47    42    1
    11    36    30    1
    12    36    37    1
    13     1     2   ar
    14    29    30   ar
    15    29    28   ar
    16    21    20    1
    17    20    16    1
    18    23    17    1
    19    23    24    1
    20    16    17   ar
    21    16    15   ar
    22     4    15    1
    23     4     3   ar
    24    30    31   ar
    25    38    37    1
    26    17    18   ar
    27    15    19   ar
    28     8     7    1
    29    18    19   ar
    30    18    28    1
    31     2     3   ar
    32     2     7    1
    33    28    32   ar
    34     3    10    1
    35    37    40    1
    36    37    39    1
    37     7     9    1
    38    42    41   ar
    39    42    43   ar
    40    31    32   ar
    41    31    41    1
    42    50    43    1
    43    50    51    1
    44    10    11    1
    45    25    24    1
    46    52    51    1
    47    24    26    1
    48    24    27    1
    49    41    45   ar
    50    43    44   ar
    51    51    53    1
    52    51    54    1
    53    11    13    1
    54    11    12    1
    55    11    14    1
    56    44    45   ar
    57    44    46    1
