@<TRIPOS>MOLECULE
mol_data/opt/m06hf/geoms/mol2/5hl5hl-5hl.out
 41 43 0 0 0
SMALL
GASTEIGER

@<TRIPOS>ATOM
      1 C          -2.3428   -2.1076   -0.5750 C.ar    1  LIG1        0.0006
      2 C          -1.0038   -2.2807   -0.4321 C.ar    1  LIG1        0.0746
      3 C          -0.3166   -1.0174   -0.3197 C.ar    1  LIG1        0.1559
      4 C          -1.1330    0.0740   -0.3717 C.ar    1  LIG1        0.0713
      5 S          -2.7813   -0.4310   -0.5852 S.2     1  LIG1       -0.0905
      6 H          -3.1029   -2.8664   -0.6587 H       1  LIG1        0.0713
      7 N          -0.2792   -3.4689   -0.3146 N.pl3   1  LIG1       -0.3547
      8 H          -0.7044   -4.2656   -0.7678 H       1  LIG1        0.1424
      9 H           0.6887   -3.3440   -0.5872 H       1  LIG1        0.1424
     10 O           1.0470   -1.0040   -0.1768 O.3     1  LIG1       -0.4921
     11 C           1.4769   -0.6713    1.1499 C.3     1  LIG1        0.0789
     12 H           2.5633   -0.7079    1.1343 H       1  LIG1        0.0660
     13 H           1.1365    0.3326    1.4061 H       1  LIG1        0.0660
     14 H           1.0756   -1.4038    1.8518 H       1  LIG1        0.0660
     15 C          -0.7751    1.4876   -0.2970 C.ar    1  LIG1        0.0544
     16 C           0.3762    2.1030   -0.7105 C.ar    1  LIG1        0.0831
     17 C           0.3074    3.5334   -0.5272 C.ar    1  LIG1        0.1565
     18 C          -0.8583    3.9841    0.0128 C.ar    1  LIG1        0.0718
     19 S          -1.9285    2.6504    0.3251 S.2     1  LIG1       -0.0814
     20 N           1.5401    1.5491   -1.1976 N.pl3   1  LIG1       -0.3542
     21 H           1.5229    0.5615   -1.4113 H       1  LIG1        0.1425
     22 H           2.0568    2.1494   -1.8240 H       1  LIG1        0.1425
     23 O           1.3710    4.3089   -0.9077 O.3     1  LIG1       -0.4921
     24 C           2.1747    4.7552    0.1920 C.3     1  LIG1        0.0789
     25 H           2.9765    5.3478   -0.2406 H       1  LIG1        0.0660
     26 H           1.5714    5.3675    0.8634 H       1  LIG1        0.0660
     27 H           2.5764    3.8881    0.7183 H       1  LIG1        0.0660
     28 C          -1.2387    5.3558    0.3411 C.ar    1  LIG1        0.0538
     29 C          -0.8720    6.5192   -0.2825 C.ar    1  LIG1        0.0824
     30 C          -1.5275    7.6670    0.3108 C.ar    1  LIG1        0.1482
     31 C          -2.3537    7.3555    1.3353 C.ar    1  LIG1        0.0199
     32 S          -2.3585    5.6615    1.6497 S.2     1  LIG1       -0.0904
     33 H          -2.9495    8.0407    1.9155 H       1  LIG1        0.0731
     34 N           0.0110    6.7169   -1.3303 N.pl3   1  LIG1       -0.3542
     35 H           0.3789    5.8796   -1.7620 H       1  LIG1        0.1425
     36 H          -0.2803    7.4495   -1.9651 H       1  LIG1        0.1425
     37 O          -1.3114    8.9211   -0.1856 O.3     1  LIG1       -0.4927
     38 C          -0.0878    9.4959    0.2838 C.3     1  LIG1        0.0789
     39 H           0.0047   10.4617   -0.2068 H       1  LIG1        0.0660
     40 H          -0.1346    9.6265    1.3662 H       1  LIG1        0.0660
     41 H           0.7520    8.8512    0.0184 H       1  LIG1        0.0660
@<TRIPOS>BOND
     1    36    34    1
     2    22    20    1
     3    35    34    1
     4    21    20    1
     5    34    29    1
     6    20    16    1
     7    23    17    1
     8    23    24    1
     9     8     7    1
    10    16    17   ar
    11    16    15   ar
    12     6     1    1
    13     9     7    1
    14     5     1   ar
    15     5     4   ar
    16     1     2   ar
    17    17    18   ar
    18     2     3   ar
    19     2     7    1
    20     4     3   ar
    21     4    15    1
    22     3    10    1
    23    15    19   ar
    24    29    30   ar
    25    29    28   ar
    26    25    24    1
    27    39    38    1
    28    37    38    1
    29    37    30    1
    30    10    11    1
    31    18    19   ar
    32    18    28    1
    33    41    38    1
    34    24    27    1
    35    24    26    1
    36    38    40    1
    37    30    31   ar
    38    28    32   ar
    39    12    11    1
    40    11    13    1
    41    11    14    1
    42    31    32   ar
    43    31    33    1
