@<TRIPOS>MOLECULE
mol_data/opt/m06hf/geoms/mol2/5hl5hl5hl.out
 41 43 0 0 0
SMALL
GASTEIGER

@<TRIPOS>ATOM
      1 C          -2.3444   -2.1114   -0.5309 C.ar    1  LIG1        0.0006
      2 C          -1.0024   -2.2824   -0.4160 C.ar    1  LIG1        0.0746
      3 C          -0.3150   -1.0181   -0.3184 C.ar    1  LIG1        0.1559
      4 C          -1.1340    0.0721   -0.3537 C.ar    1  LIG1        0.0713
      5 S          -2.7857   -0.4355   -0.5325 S.2     1  LIG1       -0.0905
      6 H          -3.1049   -2.8714   -0.5984 H       1  LIG1        0.0713
      7 N          -0.2737   -3.4695   -0.3133 N.pl3   1  LIG1       -0.3547
      8 H          -0.7071   -4.2670   -0.7572 H       1  LIG1        0.1424
      9 H           0.6881   -3.3432   -0.6061 H       1  LIG1        0.1424
     10 O           1.0513   -1.0025   -0.2040 O.3     1  LIG1       -0.4921
     11 C           1.5084   -0.6686    1.1132 C.3     1  LIG1        0.0789
     12 H           2.5942   -0.7036    1.0749 H       1  LIG1        0.0660
     13 H           1.1718    0.3348    1.3761 H       1  LIG1        0.0660
     14 H           1.1230   -1.4015    1.8236 H       1  LIG1        0.0660
     15 C          -0.7768    1.4863   -0.2869 C.ar    1  LIG1        0.0544
     16 C           0.3647    2.1033   -0.7247 C.ar    1  LIG1        0.0831
     17 C           0.2975    3.5336   -0.5404 C.ar    1  LIG1        0.1565
     18 C          -0.8574    3.9827    0.0237 C.ar    1  LIG1        0.0718
     19 S          -1.9187    2.6474    0.3588 S.2     1  LIG1       -0.0814
     20 N           1.5189    1.5510   -1.2358 N.pl3   1  LIG1       -0.3542
     21 H           1.4988    0.5633   -1.4488 H       1  LIG1        0.1425
     22 H           2.0215    2.1519   -1.8732 H       1  LIG1        0.1425
     23 O           1.3517    4.3106   -0.9434 O.3     1  LIG1       -0.4921
     24 C           2.1775    4.7585    0.1391 C.3     1  LIG1        0.0789
     25 H           2.9692    5.3523   -0.3104 H       1  LIG1        0.0660
     26 H           1.5874    5.3701    0.8228 H       1  LIG1        0.0660
     27 H           2.5915    3.8922    0.6571 H       1  LIG1        0.0660
     28 C          -1.2330    5.3539    0.3595 C.ar    1  LIG1        0.0538
     29 C          -0.8812    6.5177   -0.2721 C.ar    1  LIG1        0.0824
     30 C          -1.5259    7.6646    0.3344 C.ar    1  LIG1        0.1482
     31 C          -2.3300    7.3523    1.3761 C.ar    1  LIG1        0.0199
     32 S          -2.3256    5.6584    1.6911 S.2     1  LIG1       -0.0904
     33 H          -2.9146    8.0368    1.9684 H       1  LIG1        0.0731
     34 N          -0.0207    6.7163   -1.3382 N.pl3   1  LIG1       -0.3542
     35 H           0.3395    5.8795   -1.7773 H       1  LIG1        0.1425
     36 H          -0.3263    7.4483   -1.9671 H       1  LIG1        0.1425
     37 O          -1.3222    8.9189   -0.1668 O.3     1  LIG1       -0.4927
     38 C          -0.0899    9.4958    0.2766 C.3     1  LIG1        0.0789
     39 H          -0.0092   10.4616   -0.2161 H       1  LIG1        0.0660
     40 H          -0.1143    9.6267    1.3598 H       1  LIG1        0.0660
     41 H           0.7451    8.8522   -0.0061 H       1  LIG1        0.0660
@<TRIPOS>BOND
     1    36    34    1
     2    22    20    1
     3    35    34    1
     4    21    20    1
     5    34    29    1
     6    20    16    1
     7    23    17    1
     8    23    24    1
     9     8     7    1
    10    16    17   ar
    11    16    15   ar
    12     9     7    1
    13     6     1    1
    14    17    18   ar
    15     5     1   ar
    16     5     4   ar
    17     1     2   ar
    18     2     3   ar
    19     2     7    1
    20     4     3   ar
    21     4    15    1
    22     3    10    1
    23    25    24    1
    24    15    19   ar
    25    29    30   ar
    26    29    28   ar
    27    39    38    1
    28    10    11    1
    29    37    38    1
    30    37    30    1
    31    41    38    1
    32    18    19   ar
    33    18    28    1
    34    24    27    1
    35    24    26    1
    36    38    40    1
    37    30    31   ar
    38    28    32   ar
    39    12    11    1
    40    11    13    1
    41    11    14    1
    42    31    32   ar
    43    31    33    1
