@<TRIPOS>MOLECULE
mol_data/opt/m06hf/geoms/mol2/5hl5hl-5hl5hl-.out
 54 57 0 0 0
SMALL
GASTEIGER

@<TRIPOS>ATOM
      1 C          -2.1593   -2.1467   -1.2802 C.ar    1  LIG1        0.0006
      2 C          -0.9630   -2.3291   -0.6641 C.ar    1  LIG1        0.0746
      3 C          -0.3103   -1.0714   -0.3934 C.ar    1  LIG1        0.1559
      4 C          -1.0142    0.0261   -0.7953 C.ar    1  LIG1        0.0713
      5 S          -2.5018   -0.4685   -1.5452 S.2     1  LIG1       -0.0905
      6 H          -2.8724   -2.8974   -1.5766 H       1  LIG1        0.0713
      7 N          -0.3737   -3.5170   -0.2266 N.pl3   1  LIG1       -0.3547
      8 H          -0.6196   -4.3324   -0.7704 H       1  LIG1        0.1424
      9 H           0.6283   -3.4177   -0.1165 H       1  LIG1        0.1424
     10 O           0.9159   -1.0693    0.2195 O.3     1  LIG1       -0.4921
     11 C           0.8770   -0.6096    1.5773 C.3     1  LIG1        0.0789
     12 H           1.9017   -0.6463    1.9375 H       1  LIG1        0.0660
     13 H           0.5026    0.4144    1.6082 H       1  LIG1        0.0660
     14 H           0.2356   -1.2708    2.1619 H       1  LIG1        0.0660
     15 C          -0.6533    1.4359   -0.6767 C.ar    1  LIG1        0.0544
     16 C           0.5925    2.0043   -0.6979 C.ar    1  LIG1        0.0831
     17 C           0.5210    3.4424   -0.5982 C.ar    1  LIG1        0.1565
     18 C          -0.7420    3.9446   -0.4972 C.ar    1  LIG1        0.0719
     19 S          -1.9034    2.6503   -0.5175 S.2     1  LIG1       -0.0814
     20 N           1.8285    1.3962   -0.7358 N.pl3   1  LIG1       -0.3542
     21 H           1.8432    0.3985   -0.8951 H       1  LIG1        0.1425
     22 H           2.5517    1.9465   -1.1751 H       1  LIG1        0.1425
     23 O           1.6828    4.1694   -0.6159 O.3     1  LIG1       -0.4921
     24 C           2.0437    4.6937    0.6684 C.3     1  LIG1        0.0789
     25 H           2.9816    5.2244    0.5258 H       1  LIG1        0.0660
     26 H           1.2713    5.3814    1.0144 H       1  LIG1        0.0660
     27 H           2.1688    3.8683    1.3708 H       1  LIG1        0.0660
     28 C          -1.1648    5.3351   -0.3715 C.ar    1  LIG1        0.0544
     29 C          -0.5578    6.4641   -0.8577 C.ar    1  LIG1        0.0831
     30 C          -1.3349    7.6472   -0.5713 C.ar    1  LIG1        0.1565
     31 C          -2.4880    7.4183    0.1152 C.ar    1  LIG1        0.0718
     32 S          -2.6663    5.7224    0.4442 S.2     1  LIG1       -0.0814
     33 N           0.6507    6.6018   -1.4993 N.pl3   1  LIG1       -0.3542
     34 H           1.1262    5.7567   -1.7827 H       1  LIG1        0.1425
     35 H           0.7146    7.4049   -2.1074 H       1  LIG1        0.1425
     36 O          -0.8806    8.8622   -1.0124 O.3     1  LIG1       -0.4921
     37 C          -0.3990    9.7139    0.0347 C.3     1  LIG1        0.0789
     38 H          -0.0732   10.6313   -0.4487 H       1  LIG1        0.0660
     39 H          -1.2048    9.9245    0.7391 H       1  LIG1        0.0660
     40 H           0.4356    9.2255    0.5398 H       1  LIG1        0.0660
     41 C          -3.4844    8.3868    0.5646 C.ar    1  LIG1        0.0538
     42 C          -3.8636    9.5577   -0.0360 C.ar    1  LIG1        0.0824
     43 C          -4.9348   10.2050    0.6927 C.ar    1  LIG1        0.1482
     44 C          -5.3344    9.5277    1.7928 C.ar    1  LIG1        0.0199
     45 S          -4.4139    8.0867    2.0158 S.2     1  LIG1       -0.0904
     46 H          -6.1158    9.8110    2.4784 H       1  LIG1        0.0731
     47 N          -3.3572   10.1679   -1.1706 N.pl3   1  LIG1       -0.3542
     48 H          -2.6803    9.6308   -1.6960 H       1  LIG1        0.1425
     49 H          -4.0649   10.6396   -1.7192 H       1  LIG1        0.1425
     50 O          -5.4629   11.3813    0.2417 O.3     1  LIG1       -0.4927
     51 C          -4.6697   12.5141    0.6092 C.3     1  LIG1        0.0789
     52 H          -5.1410   13.3800    0.1505 H       1  LIG1        0.0660
     53 H          -4.6623   12.6208    1.6954 H       1  LIG1        0.0660
     54 H          -3.6511   12.3918    0.2359 H       1  LIG1        0.0660
@<TRIPOS>BOND
     1    35    33    1
     2    34    33    1
     3    49    47    1
     4    48    47    1
     5     6     1    1
     6     5     1   ar
     7     5     4   ar
     8    33    29    1
     9     1     2   ar
    10    22    20    1
    11    47    42    1
    12    36    30    1
    13    36    37    1
    14    21    20    1
    15    29    30   ar
    16    29    28   ar
    17     4    15    1
    18     4     3   ar
    19     8     7    1
    20    20    16    1
    21    16    15   ar
    22    16    17   ar
    23    15    19   ar
    24     2     3   ar
    25     2     7    1
    26    23    17    1
    27    23    24    1
    28    17    18   ar
    29    30    31   ar
    30    19    18   ar
    31    18    28    1
    32    38    37    1
    33     3    10    1
    34    28    32   ar
    35     7     9    1
    36    42    41   ar
    37    42    43   ar
    38    37    40    1
    39    37    39    1
    40    31    32   ar
    41    31    41    1
    42    52    51    1
    43    10    11    1
    44    54    51    1
    45    50    51    1
    46    50    43    1
    47    25    24    1
    48    41    45   ar
    49    51    53    1
    50    24    26    1
    51    24    27    1
    52    43    44   ar
    53    11    13    1
    54    11    12    1
    55    11    14    1
    56    44    45   ar
    57    44    46    1
