@<TRIPOS>MOLECULE
mol_data/opt/m06hf/geoms/mol2/5hl5hl5hl-.out
 41 43 0 0 0
SMALL
GASTEIGER

@<TRIPOS>ATOM
      1 C          -2.3250   -2.1178   -0.5452 C.ar    1  LIG1        0.0006
      2 C          -0.9852   -2.2857   -0.4035 C.ar    1  LIG1        0.0746
      3 C          -0.3022   -1.0195   -0.2982 C.ar    1  LIG1        0.1559
      4 C          -1.1223    0.0688   -0.3543 C.ar    1  LIG1        0.0713
      5 S          -2.7693   -0.4428   -0.5628 S.2     1  LIG1       -0.0905
      6 H          -3.0826   -2.8796   -0.6241 H       1  LIG1        0.0713
      7 N          -0.2563   -3.4708   -0.2813 N.pl3   1  LIG1       -0.3547
      8 H          -0.6795   -4.2711   -0.7300 H       1  LIG1        0.1424
      9 H           0.7107   -3.3439   -0.5560 H       1  LIG1        0.1424
     10 O           1.0616   -1.0008   -0.1574 O.3     1  LIG1       -0.4921
     11 C           1.4924   -0.6602    1.1670 C.3     1  LIG1        0.0789
     12 H           2.5788   -0.6932    1.1499 H       1  LIG1        0.0660
     13 H           1.1489    0.3437    1.4188 H       1  LIG1        0.0660
     14 H           1.0946   -1.3907    1.8730 H       1  LIG1        0.0660
     15 C          -0.7692    1.4840   -0.2869 C.ar    1  LIG1        0.0544
     16 C           0.3794    2.1013   -0.7051 C.ar    1  LIG1        0.0831
     17 C           0.3060    3.5323   -0.5286 C.ar    1  LIG1        0.1565
     18 C          -0.8605    3.9816    0.0109 C.ar    1  LIG1        0.0718
     19 S          -1.9256    2.6458    0.3313 S.2     1  LIG1       -0.0814
     20 N           1.5444    1.5490   -1.1913 N.pl3   1  LIG1       -0.3542
     21 H           1.5303    0.5603   -1.4002 H       1  LIG1        0.1425
     22 H           2.0582    2.1481   -1.8214 H       1  LIG1        0.1425
     23 O           1.3664    4.3096   -0.9145 O.3     1  LIG1       -0.4921
     24 C           2.1701    4.7640    0.1818 C.3     1  LIG1        0.0789
     25 H           2.9692    5.3573   -0.2549 H       1  LIG1        0.0660
     26 H           1.5656    5.3775    0.8511 H       1  LIG1        0.0660
     27 H           2.5756    3.9009    0.7118 H       1  LIG1        0.0660
     28 C          -1.2451    5.3536    0.3332 C.ar    1  LIG1        0.0538
     29 C          -0.8833    6.5152   -0.2965 C.ar    1  LIG1        0.0824
     30 C          -1.5418    7.6636    0.2921 C.ar    1  LIG1        0.1482
     31 C          -2.3654    7.3542    1.3195 C.ar    1  LIG1        0.0199
     32 S          -2.3639    5.6618    1.6420 S.2     1  LIG1       -0.0904
     33 H          -2.9627    8.0403    1.8972 H       1  LIG1        0.0731
     34 N          -0.0026    6.7108   -1.3466 N.pl3   1  LIG1       -0.3542
     35 H           0.3676    5.8728   -1.7749 H       1  LIG1        0.1425
     36 H          -0.2973    7.4394   -1.9845 H       1  LIG1        0.1425
     37 O          -1.3308    8.9160   -0.2106 O.3     1  LIG1       -0.4927
     38 C          -0.1084    9.4972    0.2541 C.3     1  LIG1        0.0789
     39 H          -0.0200   10.4610   -0.2413 H       1  LIG1        0.0660
     40 H          -0.1541    9.6329    1.3360 H       1  LIG1        0.0660
     41 H           0.7332    8.8541   -0.0094 H       1  LIG1        0.0660
@<TRIPOS>BOND
     1    36    34    1
     2    22    20    1
     3    35    34    1
     4    21    20    1
     5    34    29    1
     6    20    16    1
     7    23    17    1
     8    23    24    1
     9     8     7    1
    10    16    17   ar
    11    16    15   ar
    12     6     1    1
    13     5     1   ar
    14     5     4   ar
    15     9     7    1
    16     1     2   ar
    17    17    18   ar
    18     2     3   ar
    19     2     7    1
    20     4     3   ar
    21     4    15    1
    22     3    10    1
    23    29    30   ar
    24    29    28   ar
    25    15    19   ar
    26    25    24    1
    27    39    38    1
    28    37    38    1
    29    37    30    1
    30    10    11    1
    31    41    38    1
    32    18    19   ar
    33    18    28    1
    34    24    27    1
    35    24    26    1
    36    38    40    1
    37    30    31   ar
    38    28    32   ar
    39    12    11    1
    40    11    13    1
    41    11    14    1
    42    31    32   ar
    43    31    33    1
