@<TRIPOS>MOLECULE
mol_data/opt/m06hf/geoms/mol2/5hl5hl-.out
 28 29 0 0 0
SMALL
GASTEIGER

@<TRIPOS>ATOM
      1 C          -1.0307   -1.8473    1.5964 C.ar    1  LIG1        0.0006
      2 C          -0.9541   -2.1245    0.2700 C.ar    1  LIG1        0.0746
      3 C          -0.4890   -0.9847   -0.4814 C.ar    1  LIG1        0.1559
      4 C          -0.2163    0.1134    0.2746 C.ar    1  LIG1        0.0712
      5 S          -0.5582   -0.2147    1.9478 S.2     1  LIG1       -0.0905
      6 H          -1.3318   -2.5046    2.3950 H       1  LIG1        0.0713
      7 N          -1.2028   -3.3262   -0.3981 N.pl3   1  LIG1       -0.3547
      8 H          -1.8228   -3.9557    0.0930 H       1  LIG1        0.1424
      9 H          -1.5094   -3.1615   -1.3503 H       1  LIG1        0.1424
     10 O          -0.3664   -1.0455   -1.8416 O.3     1  LIG1       -0.4921
     11 C           0.9337   -1.4775   -2.2631 C.3     1  LIG1        0.0789
     12 H           0.9072   -1.5036   -3.3499 H       1  LIG1        0.0660
     13 H           1.6850   -0.7652   -1.9210 H       1  LIG1        0.0660
     14 H           1.1379   -2.4710   -1.8601 H       1  LIG1        0.0660
     15 C           0.2498    1.4111   -0.2027 C.ar    1  LIG1        0.0537
     16 C           0.9297    2.3614    0.5056 C.ar    1  LIG1        0.0824
     17 C           1.1939    3.5376   -0.2898 C.ar    1  LIG1        0.1482
     18 C           0.7275    3.4472   -1.5571 C.ar    1  LIG1        0.0199
     19 S          -0.0484    1.9341   -1.8440 S.2     1  LIG1       -0.0904
     20 H           0.8242    4.1874   -2.3344 H       1  LIG1        0.0731
     21 N           1.3372    2.3215    1.8377 N.pl3   1  LIG1       -0.3542
     22 H           1.5209    1.3903    2.1916 H       1  LIG1        0.1425
     23 H           2.1123    2.9548    2.0023 H       1  LIG1        0.1425
     24 O           1.8678    4.5979    0.2511 O.3     1  LIG1       -0.4927
     25 C           1.0099    5.4817    0.9793 C.3     1  LIG1        0.0789
     26 H           1.6526    6.2442    1.4124 H       1  LIG1        0.0660
     27 H           0.2871    5.9371    0.3003 H       1  LIG1        0.0660
     28 H           0.4854    4.9343    1.7649 H       1  LIG1        0.0660
@<TRIPOS>BOND
     1    12    11    1
     2    20    18    1
     3    11    13    1
     4    11    14    1
     5    11    10    1
     6    19    18   ar
     7    19    15   ar
     8    10     3    1
     9    18    17   ar
    10     9     7    1
    11     3     2   ar
    12     3     4   ar
    13     7     8    1
    14     7     2    1
    15    17    24    1
    16    17    16   ar
    17    15     4    1
    18    15    16   ar
    19    24    25    1
    20     2     1   ar
    21     4     5   ar
    22    27    25    1
    23    16    21    1
    24    25    26    1
    25    25    28    1
    26     1     5   ar
    27     1     6    1
    28    21    23    1
    29    21    22    1
