@<TRIPOS>MOLECULE
mol_data/opt/m06hf/geoms/mol2/5hl5hl-5hl-5hl-.out
 54 57 0 0 0
SMALL
GASTEIGER

@<TRIPOS>ATOM
      1 C          -2.1795   -2.1630   -1.1669 C.ar    1  LIG1        0.0006
      2 C          -0.9704   -2.3365   -0.5735 C.ar    1  LIG1        0.0746
      3 C          -0.3131   -1.0750   -0.3336 C.ar    1  LIG1        0.1559
      4 C          -1.0260    0.0167   -0.7356 C.ar    1  LIG1        0.0713
      5 S          -2.5285   -0.4888   -1.4476 S.2     1  LIG1       -0.0905
      6 H          -2.8980   -2.9181   -1.4381 H       1  LIG1        0.0713
      7 N          -0.3713   -3.5181   -0.1321 N.pl3   1  LIG1       -0.3547
      8 H          -0.6276   -4.3410   -0.6597 H       1  LIG1        0.1424
      9 H           0.6327   -3.4168   -0.0441 H       1  LIG1        0.1424
     10 O           0.9256   -1.0640    0.2537 O.3     1  LIG1       -0.4921
     11 C           0.9144   -0.5862    1.6057 C.3     1  LIG1        0.0789
     12 H           1.9462   -0.6179    1.9453 H       1  LIG1        0.0660
     13 H           0.5401    0.4381    1.6306 H       1  LIG1        0.0660
     14 H           0.2854   -1.2396    2.2121 H       1  LIG1        0.0660
     15 C          -0.6637    1.4280   -0.6436 C.ar    1  LIG1        0.0544
     16 C           0.5810    1.9966   -0.6983 C.ar    1  LIG1        0.0831
     17 C           0.5107    3.4358   -0.6167 C.ar    1  LIG1        0.1565
     18 C          -0.7502    3.9389   -0.4965 C.ar    1  LIG1        0.0719
     19 S          -1.9110    2.6440   -0.4752 S.2     1  LIG1       -0.0814
     20 N           1.8165    1.3885   -0.7535 N.pl3   1  LIG1       -0.3542
     21 H           1.8287    0.3888   -0.8996 H       1  LIG1        0.1425
     22 H           2.5301    1.9333   -1.2149 H       1  LIG1        0.1425
     23 O           1.6714    4.1630   -0.6683 O.3     1  LIG1       -0.4921
     24 C           2.0583    4.7052    0.6009 C.3     1  LIG1        0.0789
     25 H           2.9926    5.2343    0.4317 H       1  LIG1        0.0660
     26 H           1.2926    5.3974    0.9531 H       1  LIG1        0.0660
     27 H           2.1983    3.8898    1.3120 H       1  LIG1        0.0660
     28 C          -1.1713    5.3308   -0.3807 C.ar    1  LIG1        0.0544
     29 C          -0.5752    6.4533   -0.8947 C.ar    1  LIG1        0.0831
     30 C          -1.3467    7.6400   -0.6081 C.ar    1  LIG1        0.1565
     31 C          -2.4851    7.4201    0.1056 C.ar    1  LIG1        0.0718
     32 S          -2.6555    5.7286    0.4609 S.2     1  LIG1       -0.0814
     33 N           0.6195    6.5827   -1.5633 N.pl3   1  LIG1       -0.3542
     34 H           1.0892    5.7340   -1.8454 H       1  LIG1        0.1425
     35 H           0.6699    7.3774   -2.1838 H       1  LIG1        0.1425
     36 O          -0.9025    8.8491   -1.0748 O.3     1  LIG1       -0.4921
     37 C          -0.3993    9.7148   -0.0496 C.3     1  LIG1        0.0789
     38 H          -0.0840   10.6256   -0.5520 H       1  LIG1        0.0660
     39 H          -1.1903    9.9349    0.6686 H       1  LIG1        0.0660
     40 H           0.4458    9.2332    0.4444 H       1  LIG1        0.0660
     41 C          -3.4723    8.3942    0.5628 C.ar    1  LIG1        0.0538
     42 C          -3.8647    9.5568   -0.0455 C.ar    1  LIG1        0.0824
     43 C          -4.9207   10.2136    0.6967 C.ar    1  LIG1        0.1482
     44 C          -5.2968    9.5511    1.8140 C.ar    1  LIG1        0.0199
     45 S          -4.3710    8.1135    2.0371 S.2     1  LIG1       -0.0904
     46 H          -6.0639    9.8434    2.5119 H       1  LIG1        0.0731
     47 N          -3.3826   10.1520   -1.1986 N.pl3   1  LIG1       -0.3542
     48 H          -2.7169    9.6079   -1.7311 H       1  LIG1        0.1425
     49 H          -4.1018   10.6166   -1.7380 H       1  LIG1        0.1425
     50 O          -5.4587   11.3836    0.2411 O.3     1  LIG1       -0.4927
     51 C          -4.6587   12.5216    0.5769 C.3     1  LIG1        0.0789
     52 H          -5.1401   13.3811    0.1166 H       1  LIG1        0.0660
     53 H          -4.6288   12.6427    1.6612 H       1  LIG1        0.0660
     54 H          -3.6481   12.3947    0.1841 H       1  LIG1        0.0660
@<TRIPOS>BOND
     1    35    33    1
     2    34    33    1
     3    49    47    1
     4    48    47    1
     5    33    29    1
     6     5     1   ar
     7     5     4   ar
     8     6     1    1
     9    22    20    1
    10    47    42    1
    11     1     2   ar
    12    36    30    1
    13    36    37    1
    14    21    20    1
    15    29    30   ar
    16    29    28   ar
    17    20    16    1
    18     4    15    1
    19     4     3   ar
    20    16    15   ar
    21    16    17   ar
    22    23    17    1
    23    23    24    1
    24     8     7    1
    25    15    19   ar
    26    17    18   ar
    27    30    31   ar
    28     2     3   ar
    29     2     7    1
    30    38    37    1
    31    18    19   ar
    32    18    28    1
    33    28    32   ar
    34     3    10    1
    35     7     9    1
    36    37    40    1
    37    37    39    1
    38    42    41   ar
    39    42    43   ar
    40    31    32   ar
    41    31    41    1
    42    52    51    1
    43    54    51    1
    44    50    51    1
    45    50    43    1
    46    10    11    1
    47    25    24    1
    48    41    45   ar
    49    51    53    1
    50    24    26    1
    51    24    27    1
    52    43    44   ar
    53    11    13    1
    54    11    12    1
    55    11    14    1
    56    44    45   ar
    57    44    46    1
