@<TRIPOS>MOLECULE
mol_data/opt/m06hf/geoms/mol2/5hl5hl-5hl5hl.out
 54 57 0 0 0
SMALL
GASTEIGER

@<TRIPOS>ATOM
      1 C          -2.1408   -2.1344   -1.3584 C.ar    1  LIG1        0.0006
      2 C          -0.9595   -2.3240   -0.7161 C.ar    1  LIG1        0.0746
      3 C          -0.3115   -1.0697   -0.4196 C.ar    1  LIG1        0.1559
      4 C          -1.0041    0.0324   -0.8285 C.ar    1  LIG1        0.0713
      5 S          -2.4745   -0.4535   -1.6171 S.2     1  LIG1       -0.0905
      6 H          -2.8478   -2.8815   -1.6777 H       1  LIG1        0.0713
      7 N          -0.3823   -3.5165   -0.2749 N.pl3   1  LIG1       -0.3547
      8 H          -0.6166   -4.3269   -0.8312 H       1  LIG1        0.1424
      9 H           0.6171   -3.4198   -0.1407 H       1  LIG1        0.1424
     10 O           0.9002   -1.0747    0.2218 O.3     1  LIG1       -0.4921
     11 C           0.8302   -0.6264    1.5821 C.3     1  LIG1        0.0789
     12 H           1.8461   -0.6678    1.9659 H       1  LIG1        0.0660
     13 H           0.4566    0.3980    1.6129 H       1  LIG1        0.0660
     14 H           0.1743   -1.2914    2.1459 H       1  LIG1        0.0660
     15 C          -0.6441    1.4404   -0.6896 C.ar    1  LIG1        0.0544
     16 C           0.6027    2.0070   -0.6770 C.ar    1  LIG1        0.0831
     17 C           0.5310    3.4443   -0.5668 C.ar    1  LIG1        0.1565
     18 C          -0.7332    3.9477   -0.4912 C.ar    1  LIG1        0.0719
     19 S          -1.8957    2.6556   -0.5495 S.2     1  LIG1       -0.0814
     20 N           1.8384    1.3971   -0.6911 N.pl3   1  LIG1       -0.3542
     21 H           1.8554    0.4009   -0.8585 H       1  LIG1        0.1425
     22 H           2.5725    1.9499   -1.1088 H       1  LIG1        0.1425
     23 O           1.6940    4.1695   -0.5512 O.3     1  LIG1       -0.4921
     24 C           2.0255    4.6824    0.7455 C.3     1  LIG1        0.0789
     25 H           2.9673    5.2127    0.6294 H       1  LIG1        0.0660
     26 H           1.2463    5.3685    1.0791 H       1  LIG1        0.0660
     27 H           2.1329    3.8509    1.4437 H       1  LIG1        0.0660
     28 C          -1.1569    5.3378   -0.3636 C.ar    1  LIG1        0.0544
     29 C          -0.5370    6.4698   -0.8260 C.ar    1  LIG1        0.0831
     30 C          -1.3188    7.6518   -0.5479 C.ar    1  LIG1        0.1565
     31 C          -2.4881    7.4191    0.1096 C.ar    1  LIG1        0.0718
     32 S          -2.6764    5.7207    0.4200 S.2     1  LIG1       -0.0814
     33 N           0.6863    6.6109   -1.4380 N.pl3   1  LIG1       -0.3542
     34 H           1.1671    5.7675   -1.7173 H       1  LIG1        0.1425
     35 H           0.7657    7.4190   -2.0376 H       1  LIG1        0.1425
     36 O          -0.8526    8.8697   -0.9679 O.3     1  LIG1       -0.4921
     37 C          -0.3944    9.7118    0.0972 C.3     1  LIG1        0.0789
     38 H          -0.0561   10.6326   -0.3707 H       1  LIG1        0.0660
     39 H          -1.2161    9.9178    0.7844 H       1  LIG1        0.0660
     40 H           0.4275    9.2177    0.6176 H       1  LIG1        0.0660
     41 C          -3.4932    8.3853    0.5437 C.ar    1  LIG1        0.0538
     42 C          -3.8566    9.5618   -0.0557 C.ar    1  LIG1        0.0824
     43 C          -4.9436   10.2048    0.6532 C.ar    1  LIG1        0.1482
     44 C          -5.3698    9.5190    1.7379 C.ar    1  LIG1        0.0199
     45 S          -4.4569    8.0746    1.9702 S.2     1  LIG1       -0.0904
     46 H          -6.1666    9.7978    2.4074 H       1  LIG1        0.0731
     47 N          -3.3230   10.1808   -1.1730 N.pl3   1  LIG1       -0.3542
     48 H          -2.6348    9.6469   -1.6869 H       1  LIG1        0.1425
     49 H          -4.0169   10.6582   -1.7340 H       1  LIG1        0.1425
     50 O          -5.4593   11.3857    0.1999 O.3     1  LIG1       -0.4927
     51 C          -4.6733   12.5141    0.5954 C.3     1  LIG1        0.0789
     52 H          -5.1324   13.3846    0.1331 H       1  LIG1        0.0660
     53 H          -4.6912   12.6117    1.6823 H       1  LIG1        0.0660
     54 H          -3.6465   12.3932    0.2449 H       1  LIG1        0.0660
@<TRIPOS>BOND
     1    35    33    1
     2    49    47    1
     3    34    33    1
     4    48    47    1
     5     6     1    1
     6     5     1   ar
     7     5     4   ar
     8    33    29    1
     9     1     2   ar
    10    47    42    1
    11    22    20    1
    12    36    30    1
    13    36    37    1
    14    21    20    1
    15     8     7    1
    16     4    15    1
    17     4     3   ar
    18    29    30   ar
    19    29    28   ar
    20     2     3   ar
    21     2     7    1
    22    20    16    1
    23    15    16   ar
    24    15    19   ar
    25    16    17   ar
    26    17    23    1
    27    17    18   ar
    28    23    24    1
    29    19    18   ar
    30    30    31   ar
    31    18    28    1
    32     3    10    1
    33    38    37    1
    34    28    32   ar
    35     7     9    1
    36    42    41   ar
    37    42    43   ar
    38    37    40    1
    39    37    39    1
    40    31    32   ar
    41    31    41    1
    42    52    51    1
    43    50    51    1
    44    50    43    1
    45    10    11    1
    46    54    51    1
    47    41    45   ar
    48    51    53    1
    49    25    24    1
    50    43    44   ar
    51    24    26    1
    52    24    27    1
    53    11    13    1
    54    11    12    1
    55    11    14    1
    56    44    45   ar
    57    44    46    1
