@<TRIPOS>MOLECULE
mol_data/opt/m06hf/geoms/mol2/5ia.out
 12 12 0 0 0
SMALL
GASTEIGER

@<TRIPOS>ATOM
      1 C          -2.0930   -1.6443    0.1186 C.ar    1  LIG1       -0.0214
      2 C          -0.7371   -1.6469    0.0121 C.ar    1  LIG1       -0.0434
      3 C          -0.2140   -0.3076   -0.0840 C.ar    1  LIG1       -0.0518
      4 C          -1.1825    0.6432   -0.0467 C.ar    1  LIG1       -0.0241
      5 S          -2.7510   -0.0511    0.1062 S.2     1  LIG1       -0.1048
      6 H          -2.7447   -2.4992    0.2048 H       1  LIG1        0.0696
      7 H          -1.0661    1.7135   -0.0998 H       1  LIG1        0.0693
      8 C           0.1297   -2.8864   -0.0056 C.3     1  LIG1       -0.0392
      9 H           0.8357   -2.8661    0.8258 H       1  LIG1        0.0278
     10 H           0.6962   -2.9385   -0.9364 H       1  LIG1        0.0278
     11 H          -0.4838   -3.7826    0.0798 H       1  LIG1        0.0278
     12 H           0.8399   -0.0856   -0.1762 H       1  LIG1        0.0625
@<TRIPOS>BOND
     1    10     8    1
     2    12     3    1
     3     7     4    1
     4     3     4   ar
     5     3     2   ar
     6     4     5   ar
     7     8     2    1
     8     8    11    1
     9     8     9    1
    10     2     1   ar
    11     5     1   ar
    12     1     6    1
