@<TRIPOS>MOLECULE
mol_data/opt/m06hf/geoms/mol2/5ia5ia5ia5ia-.out
 42 45 0 0 0
SMALL
GASTEIGER

@<TRIPOS>ATOM
      1 C          -1.1239   -1.5788    1.8776 C.ar    1  LIG1       -0.0208
      2 C          -0.8069   -1.8161    0.5762 C.ar    1  LIG1       -0.0428
      3 C          -0.6156   -0.5899   -0.1496 C.ar    1  LIG1       -0.0435
      4 C          -0.7836    0.5256    0.6177 C.ar    1  LIG1        0.0264
      5 S          -1.1824    0.1025    2.2502 S.2     1  LIG1       -0.0959
      6 H          -1.3288   -2.3094    2.6446 H       1  LIG1        0.0696
      7 C          -0.6796   -3.1867   -0.0506 C.3     1  LIG1       -0.0392
      8 H           0.3305   -3.3341   -0.4352 H       1  LIG1        0.0278
      9 H          -1.3815   -3.2891   -0.8796 H       1  LIG1        0.0278
     10 H          -0.8903   -3.9630    0.6837 H       1  LIG1        0.0278
     11 H          -0.3876   -0.5432   -1.2060 H       1  LIG1        0.0632
     12 C          -0.6474    1.9277    0.1999 C.ar    1  LIG1        0.0294
     13 C           0.3770    2.4857   -0.5162 C.ar    1  LIG1       -0.0346
     14 C           0.1532    3.8827   -0.7553 C.ar    1  LIG1       -0.0429
     15 C          -1.0080    4.3517   -0.2132 C.ar    1  LIG1        0.0270
     16 S          -1.8703    3.0901    0.5971 S.2     1  LIG1       -0.0869
     17 C           1.6079    1.7502   -0.9961 C.3     1  LIG1       -0.0386
     18 H           2.4849    2.3883   -0.8841 H       1  LIG1        0.0278
     19 H           1.5099    1.4844   -2.0508 H       1  LIG1        0.0278
     20 H           1.7515    0.8386   -0.4175 H       1  LIG1        0.0278
     21 H           0.8290    4.5099   -1.3211 H       1  LIG1        0.0632
     22 C          -1.5210    5.7284   -0.2493 C.ar    1  LIG1        0.0294
     23 C          -0.8504    6.8743    0.0818 C.ar    1  LIG1       -0.0346
     24 C          -1.6731    8.0366   -0.0974 C.ar    1  LIG1       -0.0429
     25 C          -2.9332    7.7524   -0.5368 C.ar    1  LIG1        0.0270
     26 S          -3.1455    6.0504   -0.7595 S.2     1  LIG1       -0.0869
     27 C           0.5731    6.9357    0.5878 C.3     1  LIG1       -0.0386
     28 H           0.6457    7.6599    1.3996 H       1  LIG1        0.0278
     29 H           1.2500    7.2468   -0.2105 H       1  LIG1        0.0278
     30 H           0.8856    5.9580    0.9524 H       1  LIG1        0.0278
     31 H          -1.3307    9.0464    0.0835 H       1  LIG1        0.0632
     32 C          -4.0256    8.7006   -0.7942 C.ar    1  LIG1        0.0288
     33 C          -4.4560    9.7160    0.0152 C.ar    1  LIG1       -0.0352
     34 C          -5.5468   10.4400   -0.5808 C.ar    1  LIG1       -0.0512
     35 C          -5.9093    9.9562   -1.7966 C.ar    1  LIG1       -0.0235
     36 S          -4.9369    8.6205   -2.2686 S.2     1  LIG1       -0.0959
     37 H          -6.6956   10.3100   -2.4434 H       1  LIG1        0.0693
     38 C          -3.8938   10.0414    1.3807 C.3     1  LIG1       -0.0386
     39 H          -4.7036   10.3177    2.0565 H       1  LIG1        0.0278
     40 H          -3.1977   10.8806    1.3195 H       1  LIG1        0.0278
     41 H          -3.3671    9.1795    1.7887 H       1  LIG1        0.0278
     42 H          -6.0336   11.2763   -0.0988 H       1  LIG1        0.0626
@<TRIPOS>BOND
     1    37    35    1
     2    36    35   ar
     3    36    32   ar
     4    19    17    1
     5    35    34   ar
     6    21    14    1
     7    11     3    1
     8    17    18    1
     9    17    13    1
    10    17    20    1
    11     9     7    1
    12    32    25    1
    13    32    33   ar
    14    26    25   ar
    15    26    22   ar
    16    14    13   ar
    17    14    15   ar
    18    34    42    1
    19    34    33   ar
    20    25    24   ar
    21    13    12   ar
    22     8     7    1
    23    22    15    1
    24    22    23   ar
    25    15    16   ar
    26    29    27    1
    27     3     2   ar
    28     3     4   ar
    29    24    23   ar
    30    24    31    1
    31     7     2    1
    32     7    10    1
    33    33    38    1
    34    23    27    1
    35    12    16   ar
    36    12     4    1
    37     2     1   ar
    38    27    30    1
    39    27    28    1
    40     4     5   ar
    41    40    38    1
    42    38    41    1
    43    38    39    1
    44     1     5   ar
    45     1     6    1
