@<TRIPOS>MOLECULE
mol_data/opt/m06hf/geoms/mol2/5ia5ia-5ia-5ia.out
 42 45 0 0 0
SMALL
GASTEIGER

@<TRIPOS>ATOM
      1 C          -1.1244   -1.5892    1.8623 C.ar    1  LIG1       -0.0208
      2 C          -0.8068   -1.8192    0.5597 C.ar    1  LIG1       -0.0428
      3 C          -0.6153   -0.5890   -0.1591 C.ar    1  LIG1       -0.0435
      4 C          -0.7837    0.5222    0.6143 C.ar    1  LIG1        0.0264
      5 S          -1.1832    0.0900    2.2442 S.2     1  LIG1       -0.0959
      6 H          -1.3296   -2.3241    2.6252 H       1  LIG1        0.0696
      7 C          -0.6791   -3.1863   -0.0746 C.3     1  LIG1       -0.0392
      8 H           0.3312   -3.3314   -0.4595 H       1  LIG1        0.0278
      9 H          -1.3806   -3.2841   -0.9045 H       1  LIG1        0.0278
     10 H          -0.8901   -3.9667    0.6552 H       1  LIG1        0.0278
     11 H          -0.3869   -0.5364   -1.2151 H       1  LIG1        0.0632
     12 C          -0.6475    1.9266    0.2045 C.ar    1  LIG1        0.0294
     13 C           0.3773    2.4887   -0.5081 C.ar    1  LIG1       -0.0346
     14 C           0.1534    3.8870   -0.7395 C.ar    1  LIG1       -0.0429
     15 C          -1.0080    4.3529   -0.1953 C.ar    1  LIG1        0.0270
     16 S          -1.8706    3.0866    0.6075 S.2     1  LIG1       -0.0869
     17 C           1.6085    1.7560   -0.9915 C.3     1  LIG1       -0.0386
     18 H           2.4853    2.3936   -0.8756 H       1  LIG1        0.0278
     19 H           1.5109    1.4960   -2.0477 H       1  LIG1        0.0278
     20 H           1.7518    0.8412   -0.4179 H       1  LIG1        0.0278
     21 H           0.8295    4.5174   -1.3014 H       1  LIG1        0.0632
     22 C          -1.5211    5.7298   -0.2239 C.ar    1  LIG1        0.0294
     23 C          -0.8508    6.8738    0.1140 C.ar    1  LIG1       -0.0346
     24 C          -1.6735    8.0370   -0.0592 C.ar    1  LIG1       -0.0429
     25 C          -2.9333    7.7552   -0.5008 C.ar    1  LIG1        0.0270
     26 S          -3.1454    6.0544   -0.7331 S.2     1  LIG1       -0.0869
     27 C           0.5725    6.9325    0.6210 C.3     1  LIG1       -0.0386
     28 H           0.6446    7.6521    1.4369 H       1  LIG1        0.0278
     29 H           1.2497    7.2481   -0.1753 H       1  LIG1        0.0278
     30 H           0.8849    5.9527    0.9802 H       1  LIG1        0.0278
     31 H          -1.3313    9.0459    0.1276 H       1  LIG1        0.0632
     32 C          -4.0258    8.7047   -0.7534 C.ar    1  LIG1        0.0288
     33 C          -4.4566    9.7155    0.0615 C.ar    1  LIG1       -0.0352
     34 C          -5.5472   10.4428   -0.5310 C.ar    1  LIG1       -0.0512
     35 C          -5.9090    9.9657   -1.7497 C.ar    1  LIG1       -0.0235
     36 S          -4.9363    8.6327   -2.2287 S.2     1  LIG1       -0.0959
     37 H          -6.6951   10.3231   -2.3949 H       1  LIG1        0.0693
     38 C          -3.8951   10.0333    1.4290 C.3     1  LIG1       -0.0386
     39 H          -4.7053   10.3057    2.1060 H       1  LIG1        0.0278
     40 H          -3.1991   10.8729    1.3729 H       1  LIG1        0.0278
     41 H          -3.3686    9.1691    1.8325 H       1  LIG1        0.0278
     42 H          -6.0344   11.2762   -0.0446 H       1  LIG1        0.0626
@<TRIPOS>BOND
     1    37    35    1
     2    36    35   ar
     3    36    32   ar
     4    19    17    1
     5    35    34   ar
     6    21    14    1
     7    11     3    1
     8    17    18    1
     9    17    13    1
    10    17    20    1
    11     9     7    1
    12    32    25    1
    13    32    33   ar
    14    14    13   ar
    15    14    15   ar
    16    26    25   ar
    17    26    22   ar
    18    34    42    1
    19    34    33   ar
    20    13    12   ar
    21    25    24   ar
    22     8     7    1
    23    22    15    1
    24    22    23   ar
    25    15    16   ar
    26    29    27    1
    27     3     2   ar
    28     3     4   ar
    29     7     2    1
    30     7    10    1
    31    24    23   ar
    32    24    31    1
    33    33    38    1
    34    23    27    1
    35    12    16   ar
    36    12     4    1
    37     2     1   ar
    38     4     5   ar
    39    27    30    1
    40    27    28    1
    41    40    38    1
    42    38    41    1
    43    38    39    1
    44     1     5   ar
    45     1     6    1
