@<TRIPOS>MOLECULE
mol_data/opt/m06hf/geoms/mol2/5ia5ia.out
 22 23 0 0 0
SMALL
GASTEIGER

@<TRIPOS>ATOM
      1 C          -1.9247   -1.7444    0.6986 C.ar    1  LIG1       -0.0208
      2 C          -0.7731   -1.7917   -0.0243 C.ar    1  LIG1       -0.0428
      3 C          -0.3197   -0.4732   -0.3757 C.ar    1  LIG1       -0.0435
      4 C          -1.1265    0.5206    0.0948 C.ar    1  LIG1        0.0264
      5 S          -2.4642   -0.1341    0.9808 S.2     1  LIG1       -0.0959
      6 H          -2.4883   -2.5794    1.0846 H       1  LIG1        0.0696
      7 C          -0.0531   -3.0585   -0.4293 C.3     1  LIG1       -0.0392
      8 H           0.9561   -3.0686   -0.0148 H       1  LIG1        0.0278
      9 H           0.0221   -3.1201   -1.5160 H       1  LIG1        0.0278
     10 H          -0.5880   -3.9346   -0.0656 H       1  LIG1        0.0278
     11 H           0.5587   -0.2778   -0.9757 H       1  LIG1        0.0632
     12 C          -0.9514    1.9702   -0.0689 C.ar    1  LIG1        0.0288
     13 C           0.1885    2.7006    0.1252 C.ar    1  LIG1       -0.0352
     14 C          -0.0246    4.0963   -0.1490 C.ar    1  LIG1       -0.0512
     15 C          -1.2986    4.3788   -0.5264 C.ar    1  LIG1       -0.0235
     16 S          -2.2765    2.9669   -0.5766 S.2     1  LIG1       -0.0959
     17 H          -1.7189    5.3392   -0.7774 H       1  LIG1        0.0693
     18 C           1.5110    2.1425    0.6014 C.3     1  LIG1       -0.0386
     19 H           1.9620    2.8281    1.3195 H       1  LIG1        0.0278
     20 H           2.2019    2.0203   -0.2356 H       1  LIG1        0.0278
     21 H           1.3620    1.1741    1.0773 H       1  LIG1        0.0278
     22 H           0.7511    4.8427   -0.0491 H       1  LIG1        0.0626
@<TRIPOS>BOND
     1     9     7    1
     2    11     3    1
     3    17    15    1
     4    16    15   ar
     5    16    12   ar
     6    15    14   ar
     7     7    10    1
     8     7     2    1
     9     7     8    1
    10     3     2   ar
    11     3     4   ar
    12    20    18    1
    13    14    22    1
    14    14    13   ar
    15    12     4    1
    16    12    13   ar
    17     2     1   ar
    18     4     5   ar
    19    13    18    1
    20    18    21    1
    21    18    19    1
    22     1     5   ar
    23     1     6    1
