@<TRIPOS>MOLECULE
mol_data/opt/m06hf/geoms/mol2/5ia5ia5ia-5ia-.out
 42 45 0 0 0
SMALL
GASTEIGER

@<TRIPOS>ATOM
      1 C          -1.1393   -1.5805    1.8719 C.ar    1  LIG1       -0.0208
      2 C          -0.8117   -1.8166    0.5729 C.ar    1  LIG1       -0.0428
      3 C          -0.6144   -0.5898   -0.1502 C.ar    1  LIG1       -0.0435
      4 C          -0.7886    0.5250    0.6167 C.ar    1  LIG1        0.0264
      5 S          -1.2007    0.1005    2.2455 S.2     1  LIG1       -0.0959
      6 H          -1.3505   -2.3118    2.6365 H       1  LIG1        0.0696
      7 C          -0.6794   -3.1867   -0.0540 C.3     1  LIG1       -0.0392
      8 H           0.3340   -3.3339   -0.4302 H       1  LIG1        0.0278
      9 H          -1.3742   -3.2882   -0.8890 H       1  LIG1        0.0278
     10 H          -0.8964   -3.9636    0.6778 H       1  LIG1        0.0278
     11 H          -0.3778   -0.5421   -1.2046 H       1  LIG1        0.0632
     12 C          -0.6490    1.9275    0.2014 C.ar    1  LIG1        0.0294
     13 C           0.3811    2.4861   -0.5059 C.ar    1  LIG1       -0.0346
     14 C           0.1593    3.8835   -0.7454 C.ar    1  LIG1       -0.0429
     15 C          -1.0062    4.3519   -0.2122 C.ar    1  LIG1        0.0270
     16 S          -1.8751    3.0895    0.5898 S.2     1  LIG1       -0.0869
     17 C           1.6159    1.7511   -0.9767 C.3     1  LIG1       -0.0386
     18 H           2.4919    2.3891   -0.8571 H       1  LIG1        0.0278
     19 H           1.5262    1.4862   -2.0324 H       1  LIG1        0.0278
     20 H           1.7547    0.8389   -0.3978 H       1  LIG1        0.0278
     21 H           0.8397    4.5112   -1.3051 H       1  LIG1        0.0632
     22 C          -1.5189    5.7287   -0.2512 C.ar    1  LIG1        0.0294
     23 C          -0.8511    6.8742    0.0868 C.ar    1  LIG1       -0.0346
     24 C          -1.6723    8.0367   -0.0981 C.ar    1  LIG1       -0.0429
     25 C          -2.9287    7.7530   -0.5484 C.ar    1  LIG1        0.0270
     26 S          -3.1390    6.0512   -0.7747 S.2     1  LIG1       -0.0869
     27 C           0.5681    6.9351    0.6048 C.3     1  LIG1       -0.0386
     28 H           0.6339    7.6582    1.4181 H       1  LIG1        0.0278
     29 H           1.2516    7.2471   -0.1875 H       1  LIG1        0.0278
     30 H           0.8776    5.9569    0.9708 H       1  LIG1        0.0278
     31 H          -1.3315    9.0464    0.0868 H       1  LIG1        0.0632
     32 C          -4.0190    8.7014   -0.8139 C.ar    1  LIG1        0.0288
     33 C          -4.4562    9.7160   -0.0070 C.ar    1  LIG1       -0.0352
     34 C          -5.5421   10.4404   -0.6113 C.ar    1  LIG1       -0.0512
     35 C          -5.8943    9.9578   -1.8307 C.ar    1  LIG1       -0.0235
     36 S          -4.9179    8.6227   -2.2959 S.2     1  LIG1       -0.0959
     37 H          -6.6753   10.3122   -2.4836 H       1  LIG1        0.0693
     38 C          -3.9053   10.0400    1.3634 C.3     1  LIG1       -0.0386
     39 H          -4.7208   10.3156    2.0327 H       1  LIG1        0.0278
     40 H          -3.2088   10.8793    1.3089 H       1  LIG1        0.0278
     41 H          -3.3821    9.1777    1.7750 H       1  LIG1        0.0278
     42 H          -6.0331   11.2761   -0.1325 H       1  LIG1        0.0626
@<TRIPOS>BOND
     1    37    35    1
     2    36    35   ar
     3    36    32   ar
     4    19    17    1
     5    35    34   ar
     6    21    14    1
     7    11     3    1
     8    17    18    1
     9    17    13    1
    10    17    20    1
    11     9     7    1
    12    32    25    1
    13    32    33   ar
    14    26    25   ar
    15    26    22   ar
    16    14    13   ar
    17    14    15   ar
    18    34    42    1
    19    34    33   ar
    20    25    24   ar
    21    13    12   ar
    22     8     7    1
    23    22    15    1
    24    22    23   ar
    25    15    16   ar
    26    29    27    1
    27     3     2   ar
    28     3     4   ar
    29    24    31    1
    30    24    23   ar
    31     7     2    1
    32     7    10    1
    33    33    38    1
    34    23    27    1
    35    12    16   ar
    36    12     4    1
    37     2     1   ar
    38    27    30    1
    39    27    28    1
    40     4     5   ar
    41    40    38    1
    42    38    41    1
    43    38    39    1
    44     1     5   ar
    45     1     6    1
