@<TRIPOS>MOLECULE
mol_data/opt/m06hf/geoms/mol2/5ia5ia-5ia-.out
 32 34 0 0 0
SMALL
GASTEIGER

@<TRIPOS>ATOM
      1 C          -1.5966   -1.7157    1.2881 C.ar    1  LIG1       -0.0208
      2 C          -0.8098   -1.8498    0.1863 C.ar    1  LIG1       -0.0428
      3 C          -0.4439   -0.5696   -0.3567 C.ar    1  LIG1       -0.0435
      4 C          -0.9505    0.4821    0.3496 C.ar    1  LIG1        0.0264
      5 S          -1.8898   -0.0687    1.6970 S.2     1  LIG1       -0.0959
      6 H          -2.0208   -2.5056    1.8881 H       1  LIG1        0.0696
      7 C          -0.3786   -3.1680   -0.4169 C.3     1  LIG1       -0.0392
      8 H           0.7100   -3.2342   -0.4434 H       1  LIG1        0.0278
      9 H          -0.7531   -3.2571   -1.4377 H       1  LIG1        0.0278
     10 H          -0.7643   -4.0003    0.1704 H       1  LIG1        0.0278
     11 H           0.1481   -0.4421   -1.2530 H       1  LIG1        0.0632
     12 C          -0.7682    1.9154    0.0829 C.ar    1  LIG1        0.0294
     13 C           0.4001    2.5709   -0.1970 C.ar    1  LIG1       -0.0346
     14 C           0.1797    3.9723   -0.4154 C.ar    1  LIG1       -0.0429
     15 C          -1.1241    4.3502   -0.2815 C.ar    1  LIG1        0.0270
     16 S          -2.1278    2.9918    0.0988 S.2     1  LIG1       -0.0869
     17 C           1.7670    1.9275   -0.2592 C.3     1  LIG1       -0.0386
     18 H           2.5098    2.5966    0.1757 H       1  LIG1        0.0278
     19 H           2.0515    1.7269   -1.2941 H       1  LIG1        0.0278
     20 H           1.7659    0.9874    0.2915 H       1  LIG1        0.0278
     21 H           0.9664    4.6683   -0.6742 H       1  LIG1        0.0632
     22 C          -1.6838    5.7023   -0.4136 C.ar    1  LIG1        0.0288
     23 C          -1.2329    6.8517    0.1743 C.ar    1  LIG1       -0.0352
     24 C          -2.0342    7.9858   -0.2005 C.ar    1  LIG1       -0.0512
     25 C          -3.0547    7.6660   -1.0378 C.ar    1  LIG1       -0.0235
     26 S          -3.0719    5.9889   -1.4115 S.2     1  LIG1       -0.0959
     27 H          -3.7997    8.3227   -1.4569 H       1  LIG1        0.0693
     28 C          -0.0627    6.9428    1.1271 C.3     1  LIG1       -0.0386
     29 H          -0.3150    7.6021    1.9584 H       1  LIG1        0.0278
     30 H           0.8145    7.3506    0.6207 H       1  LIG1        0.0278
     31 H           0.1849    5.9563    1.5173 H       1  LIG1        0.0278
     32 H          -1.8467    8.9867    0.1618 H       1  LIG1        0.0626
@<TRIPOS>BOND
     1    27    25    1
     2     9     7    1
     3    26    25   ar
     4    26    22   ar
     5    19    17    1
     6    11     3    1
     7    25    24   ar
     8    21    14    1
     9     8     7    1
    10     7    10    1
    11     7     2    1
    12    14    15   ar
    13    14    13   ar
    14    22    15    1
    15    22    23   ar
    16     3     2   ar
    17     3     4   ar
    18    15    16   ar
    19    17    13    1
    20    17    18    1
    21    17    20    1
    22    24    32    1
    23    24    23   ar
    24    13    12   ar
    25    12    16   ar
    26    12     4    1
    27    23    28    1
    28     2     1   ar
    29     4     5   ar
    30    30    28    1
    31    28    31    1
    32    28    29    1
    33     1     5   ar
    34     1     6    1
