@<TRIPOS>MOLECULE
mol_data/opt/m06hf/geoms/mol2/5ia5ia-5ia-5ia-.out
 42 45 0 0 0
SMALL
GASTEIGER

@<TRIPOS>ATOM
      1 C          -1.1228   -1.5860    1.8680 C.ar    1  LIG1       -0.0208
      2 C          -0.8066   -1.8183    0.5654 C.ar    1  LIG1       -0.0428
      3 C          -0.6158   -0.5893   -0.1557 C.ar    1  LIG1       -0.0435
      4 C          -0.7833    0.5232    0.6160 C.ar    1  LIG1        0.0264
      5 S          -1.1811    0.0938    2.2471 S.2     1  LIG1       -0.0959
      6 H          -1.3272   -2.3196    2.6322 H       1  LIG1        0.0696
      7 C          -0.6797   -3.1865   -0.0667 C.3     1  LIG1       -0.0392
      8 H           0.3302   -3.3325   -0.4523 H       1  LIG1        0.0278
      9 H          -1.3819   -3.2855   -0.8959 H       1  LIG1        0.0278
     10 H          -0.8903   -3.9656    0.6646 H       1  LIG1        0.0278
     11 H          -0.3885   -0.5385   -1.2121 H       1  LIG1        0.0632
     12 C          -0.6473    1.9269    0.2036 C.ar    1  LIG1        0.0294
     13 C           0.3768    2.4877   -0.5108 C.ar    1  LIG1       -0.0346
     14 C           0.1529    3.8857   -0.7443 C.ar    1  LIG1       -0.0429
     15 C          -1.0081    4.3526   -0.1999 C.ar    1  LIG1        0.0270
     16 S          -1.8701    3.0877    0.6058 S.2     1  LIG1       -0.0869
     17 C           1.6075    1.7542   -0.9941 C.3     1  LIG1       -0.0386
     18 H           2.4845    2.3918   -0.8800 H       1  LIG1        0.0278
     19 H           1.5090    1.4924   -2.0498 H       1  LIG1        0.0278
     20 H           1.7513    0.8402   -0.4192 H       1  LIG1        0.0278
     21 H           0.8284    4.5151   -1.3079 H       1  LIG1        0.0632
     22 C          -1.5211    5.7294   -0.2304 C.ar    1  LIG1        0.0294
     23 C          -0.8504    6.8740    0.1049 C.ar    1  LIG1       -0.0346
     24 C          -1.6733    8.0370   -0.0695 C.ar    1  LIG1       -0.0429
     25 C          -2.9335    7.7544   -0.5094 C.ar    1  LIG1        0.0270
     26 S          -3.1458    6.0532   -0.7387 S.2     1  LIG1       -0.0869
     27 C           0.5733    6.9335    0.6105 C.3     1  LIG1       -0.0386
     28 H           0.6463    7.6547    1.4249 H       1  LIG1        0.0278
     29 H           1.2499    7.2474   -0.1870 H       1  LIG1        0.0278
     30 H           0.8859    5.9544    0.9714 H       1  LIG1        0.0278
     31 H          -1.3309    9.0461    0.1153 H       1  LIG1        0.0632
     32 C          -4.0262    8.7035   -0.7627 C.ar    1  LIG1        0.0288
     33 C          -4.4563    9.7158    0.0509 C.ar    1  LIG1       -0.0352
     34 C          -5.5473   10.4420   -0.5418 C.ar    1  LIG1       -0.0512
     35 C          -5.9102    9.9629   -1.7594 C.ar    1  LIG1       -0.0235
     36 S          -4.9379    8.6292   -2.2370 S.2     1  LIG1       -0.0959
     37 H          -6.6969   10.3192   -2.4045 H       1  LIG1        0.0693
     38 C          -3.8936   10.0358    1.4174 C.3     1  LIG1       -0.0386
     39 H          -4.7031   10.3093    2.0946 H       1  LIG1        0.0278
     40 H          -3.1976   10.8753    1.3593 H       1  LIG1        0.0278
     41 H          -3.3666    9.1723    1.8219 H       1  LIG1        0.0278
     42 H          -6.0341   11.2763   -0.0563 H       1  LIG1        0.0626
@<TRIPOS>BOND
     1    37    35    1
     2    36    35   ar
     3    36    32   ar
     4    19    17    1
     5    35    34   ar
     6    21    14    1
     7    11     3    1
     8    17    18    1
     9    17    13    1
    10    17    20    1
    11     9     7    1
    12    32    25    1
    13    32    33   ar
    14    14    13   ar
    15    14    15   ar
    16    26    25   ar
    17    26    22   ar
    18    34    42    1
    19    34    33   ar
    20    13    12   ar
    21    25    24   ar
    22     8     7    1
    23    22    15    1
    24    22    23   ar
    25    15    16   ar
    26    29    27    1
    27     3     2   ar
    28     3     4   ar
    29    24    23   ar
    30    24    31    1
    31     7     2    1
    32     7    10    1
    33    33    38    1
    34    23    27    1
    35    12    16   ar
    36    12     4    1
    37     2     1   ar
    38    27    30    1
    39    27    28    1
    40     4     5   ar
    41    40    38    1
    42    38    41    1
    43    38    39    1
    44     1     5   ar
    45     1     6    1
