@<TRIPOS>MOLECULE
mol_data/opt/m06hf/geoms/mol2/5ia5ia-5ia.out
 32 34 0 0 0
SMALL
GASTEIGER

@<TRIPOS>ATOM
      1 C          -1.5905   -1.7126    1.2975 C.ar    1  LIG1       -0.0208
      2 C          -0.8092   -1.8494    0.1921 C.ar    1  LIG1       -0.0428
      3 C          -0.4459   -0.5704   -0.3557 C.ar    1  LIG1       -0.0435
      4 C          -0.9489    0.4829    0.3507 C.ar    1  LIG1        0.0264
      5 S          -1.8816   -0.0647    1.7041 S.2     1  LIG1       -0.0959
      6 H          -2.0118   -2.5011    1.9014 H       1  LIG1        0.0696
      7 C          -0.3811   -3.1689   -0.4102 C.3     1  LIG1       -0.0392
      8 H           0.7074   -3.2353   -0.4420 H       1  LIG1        0.0278
      9 H          -0.7606   -3.2604   -1.4289 H       1  LIG1        0.0278
     10 H          -0.7639   -3.9998    0.1809 H       1  LIG1        0.0278
     11 H           0.1416   -0.4450   -1.2552 H       1  LIG1        0.0632
     12 C          -0.7678    1.9157    0.0799 C.ar    1  LIG1        0.0294
     13 C           0.3991    2.5703   -0.2073 C.ar    1  LIG1       -0.0346
     14 C           0.1777    3.9713   -0.4279 C.ar    1  LIG1       -0.0429
     15 C          -1.1254    4.3496   -0.2883 C.ar    1  LIG1        0.0270
     16 S          -2.1273    2.9922    0.1001 S.2     1  LIG1       -0.0869
     17 C           1.7656    1.9267   -0.2748 C.3     1  LIG1       -0.0386
     18 H           2.5107    2.5967    0.1547 H       1  LIG1        0.0278
     19 H           2.0450    1.7238   -1.3108 H       1  LIG1        0.0278
     20 H           1.7672    0.9879    0.2780 H       1  LIG1        0.0278
     21 H           0.9632    4.6666   -0.6921 H       1  LIG1        0.0632
     22 C          -1.6857    5.7014   -0.4207 C.ar    1  LIG1        0.0288
     23 C          -1.2317    6.8521    0.1623 C.ar    1  LIG1       -0.0352
     24 C          -2.0349    7.9854   -0.2111 C.ar    1  LIG1       -0.0512
     25 C          -3.0596    7.6638   -1.0425 C.ar    1  LIG1       -0.0235
     26 S          -3.0787    5.9858   -1.4124 S.2     1  LIG1       -0.0959
     27 H          -3.8065    8.3196   -1.4594 H       1  LIG1        0.0693
     28 C          -0.0568    6.9453    1.1091 C.3     1  LIG1       -0.0386
     29 H          -0.3049    7.6065    1.9401 H       1  LIG1        0.0278
     30 H           0.8179    7.3519    0.5973 H       1  LIG1        0.0278
     31 H           0.1926    5.9598    1.5003 H       1  LIG1        0.0278
     32 H          -1.8454    8.9872    0.1479 H       1  LIG1        0.0626
@<TRIPOS>BOND
     1    27    25    1
     2     9     7    1
     3    26    25   ar
     4    26    22   ar
     5    19    17    1
     6    11     3    1
     7    25    24   ar
     8    21    14    1
     9     8     7    1
    10    14    15   ar
    11    14    13   ar
    12    22    15    1
    13    22    23   ar
    14     7    10    1
    15     7     2    1
    16     3     2   ar
    17     3     4   ar
    18    15    16   ar
    19    17    13    1
    20    17    18    1
    21    17    20    1
    22    24    32    1
    23    24    23   ar
    24    13    12   ar
    25    12    16   ar
    26    12     4    1
    27    23    28    1
    28     2     1   ar
    29     4     5   ar
    30    30    28    1
    31    28    31    1
    32    28    29    1
    33     1     5   ar
    34     1     6    1
