@<TRIPOS>MOLECULE
mol_data/opt/m06hf/geoms/mol2/5ia5ia5ia.out
 32 34 0 0 0
SMALL
GASTEIGER

@<TRIPOS>ATOM
      1 C          -1.6037   -1.7090    1.2956 C.ar    1  LIG1       -0.0208
      2 C          -0.8116   -1.8488    0.1983 C.ar    1  LIG1       -0.0428
      3 C          -0.4427   -0.5714   -0.3494 C.ar    1  LIG1       -0.0435
      4 C          -0.9525    0.4839    0.3491 C.ar    1  LIG1        0.0264
      5 S          -1.8985   -0.0599    1.6947 S.2     1  LIG1       -0.0959
      6 H          -2.0310   -2.4958    1.8975 H       1  LIG1        0.0696
      7 C          -0.3777   -3.1701   -0.3961 C.3     1  LIG1       -0.0392
      8 H           0.7110   -3.2367   -0.4171 H       1  LIG1        0.0278
      9 H          -0.7473   -3.2643   -1.4183 H       1  LIG1        0.0278
     10 H          -0.7664   -3.9993    0.1934 H       1  LIG1        0.0278
     11 H           0.1536   -0.4485   -1.2435 H       1  LIG1        0.0632
     12 C          -0.7687    1.9159    0.0762 C.ar    1  LIG1        0.0294
     13 C           0.4012    2.5696   -0.2014 C.ar    1  LIG1       -0.0346
     14 C           0.1821    3.9700   -0.4279 C.ar    1  LIG1       -0.0429
     15 C          -1.1223    4.3488   -0.3023 C.ar    1  LIG1        0.0270
     16 S          -2.1281    2.9926    0.0801 S.2     1  LIG1       -0.0869
     17 C           1.7681    1.9257   -0.2537 C.3     1  LIG1       -0.0386
     18 H           2.5090    2.5968    0.1813 H       1  LIG1        0.0278
     19 H           2.0577    1.7199   -1.2863 H       1  LIG1        0.0278
     20 H           1.7642    0.9884    0.3016 H       1  LIG1        0.0278
     21 H           0.9702    4.6645   -0.6864 H       1  LIG1        0.0632
     22 C          -1.6810    5.7003   -0.4438 C.ar    1  LIG1        0.0288
     23 C          -1.2327    6.8526    0.1405 C.ar    1  LIG1       -0.0352
     24 C          -2.0320    7.9850   -0.2439 C.ar    1  LIG1       -0.0512
     25 C          -3.0485    7.6612   -1.0845 C.ar    1  LIG1       -0.0235
     26 S          -3.0643    5.9821   -1.4499 S.2     1  LIG1       -0.0959
     27 H          -3.7913    8.3159   -1.5105 H       1  LIG1        0.0693
     28 C          -0.0671    6.9483    1.0984 C.3     1  LIG1       -0.0386
     29 H          -0.3232    7.6118    1.9252 H       1  LIG1        0.0278
     30 H           0.8127    7.3534    0.5941 H       1  LIG1        0.0278
     31 H           0.1784    5.9638    1.4948 H       1  LIG1        0.0278
     32 H          -1.8459    8.9877    0.1142 H       1  LIG1        0.0626
@<TRIPOS>BOND
     1    27    25    1
     2    26    25   ar
     3    26    22   ar
     4     9     7    1
     5    19    17    1
     6    11     3    1
     7    25    24   ar
     8    21    14    1
     9    22    15    1
    10    22    23   ar
    11    14    15   ar
    12    14    13   ar
    13     8     7    1
    14     7    10    1
    15     7     2    1
    16     3     2   ar
    17     3     4   ar
    18    15    16   ar
    19    17    13    1
    20    17    18    1
    21    17    20    1
    22    24    32    1
    23    24    23   ar
    24    13    12   ar
    25    12    16   ar
    26    12     4    1
    27    23    28    1
    28     2     1   ar
    29     4     5   ar
    30    30    28    1
    31    28    31    1
    32    28    29    1
    33     1     5   ar
    34     1     6    1
