@<TRIPOS>MOLECULE
mol_data/opt/m06hf/geoms/mol2/5ia5ia-5ia5ia-.out
 42 45 0 0 0
SMALL
GASTEIGER

@<TRIPOS>ATOM
      1 C          -1.1074   -1.5842    1.8737 C.ar    1  LIG1       -0.0208
      2 C          -0.8017   -1.8177    0.5688 C.ar    1  LIG1       -0.0428
      3 C          -0.6168   -0.5894   -0.1550 C.ar    1  LIG1       -0.0435
      4 C          -0.7782    0.5238    0.6169 C.ar    1  LIG1        0.0264
      5 S          -1.1627    0.0960    2.2516 S.2     1  LIG1       -0.0959
      6 H          -1.3056   -2.3171    2.6403 H       1  LIG1        0.0696
      7 C          -0.6798   -3.1865   -0.0630 C.3     1  LIG1       -0.0392
      8 H           0.3269   -3.3327   -0.4567 H       1  LIG1        0.0278
      9 H          -1.3888   -3.2865   -0.8862 H       1  LIG1        0.0278
     10 H          -0.8842   -3.9649    0.6709 H       1  LIG1        0.0278
     11 H          -0.3981   -0.5396   -1.2132 H       1  LIG1        0.0632
     12 C          -0.6457    1.9271    0.2021 C.ar    1  LIG1        0.0294
     13 C           0.3725    2.4873   -0.5213 C.ar    1  LIG1       -0.0346
     14 C           0.1466    3.8850   -0.7544 C.ar    1  LIG1       -0.0429
     15 C          -1.0099    4.3523   -0.2008 C.ar    1  LIG1        0.0270
     16 S          -1.8651    3.0883    0.6132 S.2     1  LIG1       -0.0869
     17 C           1.5993    1.7533   -1.0140 C.3     1  LIG1       -0.0386
     18 H           2.4771    2.3911   -0.9078 H       1  LIG1        0.0278
     19 H           1.4920    1.4904   -2.0685 H       1  LIG1        0.0278
     20 H           1.7479    0.8400   -0.4393 H       1  LIG1        0.0278
     21 H           0.8175    4.5139   -1.3241 H       1  LIG1        0.0632
     22 C          -1.5232    5.7292   -0.2285 C.ar    1  LIG1        0.0294
     23 C          -0.8498    6.8741    0.1002 C.ar    1  LIG1       -0.0346
     24 C          -1.6741    8.0369   -0.0686 C.ar    1  LIG1       -0.0429
     25 C          -2.9379    7.7539   -0.4979 C.ar    1  LIG1        0.0270
     26 S          -3.1520    6.0525   -0.7237 S.2     1  LIG1       -0.0869
     27 C           0.5780    6.9341    0.5940 C.3     1  LIG1       -0.0386
     28 H           0.6576    7.6559    1.4073 H       1  LIG1        0.0278
     29 H           1.2480    7.2475   -0.2093 H       1  LIG1        0.0278
     30 H           0.8937    5.9553    0.9530 H       1  LIG1        0.0278
     31 H          -1.3302    9.0462    0.1124 H       1  LIG1        0.0632
     32 C          -4.0326    8.7027   -0.7431 C.ar    1  LIG1        0.0288
     33 C          -4.4560    9.7157    0.0730 C.ar    1  LIG1       -0.0352
     34 C          -5.5519   10.4414   -0.5114 C.ar    1  LIG1       -0.0512
     35 C          -5.9248    9.9611   -1.7255 C.ar    1  LIG1       -0.0235
     36 S          -4.9565    8.6268   -2.2098 S.2     1  LIG1       -0.0959
     37 H          -6.7167   10.3168   -2.3644 H       1  LIG1        0.0693
     38 C          -3.8820   10.0371    1.4345 C.3     1  LIG1       -0.0386
     39 H          -4.6860   10.3114    2.1181 H       1  LIG1        0.0278
     40 H          -3.1866   10.8766    1.3698 H       1  LIG1        0.0278
     41 H          -3.3518    9.1741    1.8355 H       1  LIG1        0.0278
     42 H          -6.0346   11.2762   -0.0228 H       1  LIG1        0.0626
@<TRIPOS>BOND
     1    37    35    1
     2    36    35   ar
     3    36    32   ar
     4    19    17    1
     5    35    34   ar
     6    21    14    1
     7    11     3    1
     8    17    18    1
     9    17    13    1
    10    17    20    1
    11     9     7    1
    12    14    13   ar
    13    14    15   ar
    14    32    25    1
    15    32    33   ar
    16    26    25   ar
    17    26    22   ar
    18    13    12   ar
    19    34    42    1
    20    34    33   ar
    21    25    24   ar
    22     8     7    1
    23    22    15    1
    24    22    23   ar
    25    29    27    1
    26    15    16   ar
    27     3     2   ar
    28     3     4   ar
    29    24    23   ar
    30    24    31    1
    31     7     2    1
    32     7    10    1
    33    33    38    1
    34    23    27    1
    35    12    16   ar
    36    12     4    1
    37     2     1   ar
    38    27    30    1
    39    27    28    1
    40     4     5   ar
    41    40    38    1
    42    38    41    1
    43    38    39    1
    44     1     5   ar
    45     1     6    1
