@<TRIPOS>MOLECULE
mol_data/opt/m06hf/geoms/mol2/5ia5ia5ia-.out
 32 34 0 0 0
SMALL
GASTEIGER

@<TRIPOS>ATOM
      1 C          -1.6098   -1.7120    1.2861 C.ar    1  LIG1       -0.0208
      2 C          -0.8121   -1.8493    0.1925 C.ar    1  LIG1       -0.0428
      3 C          -0.4407   -0.5706   -0.3504 C.ar    1  LIG1       -0.0435
      4 C          -0.9541    0.4831    0.3479 C.ar    1  LIG1        0.0264
      5 S          -1.9068   -0.0639    1.6875 S.2     1  LIG1       -0.0959
      6 H          -2.0400   -2.5002    1.8840 H       1  LIG1        0.0696
      7 C          -0.3752   -3.1691   -0.4028 C.3     1  LIG1       -0.0392
      8 H           0.7136   -3.2355   -0.4184 H       1  LIG1        0.0278
      9 H          -0.7396   -3.2611   -1.4270 H       1  LIG1        0.0278
     10 H          -0.7667   -3.9997    0.1829 H       1  LIG1        0.0278
     11 H           0.1601   -0.4456   -1.2412 H       1  LIG1        0.0632
     12 C          -0.7690    1.9157    0.0792 C.ar    1  LIG1        0.0294
     13 C           0.4021    2.5702   -0.1910 C.ar    1  LIG1       -0.0346
     14 C           0.1840    3.9711   -0.4155 C.ar    1  LIG1       -0.0429
     15 C          -1.1210    4.3494   -0.2955 C.ar    1  LIG1        0.0270
     16 S          -2.1286    2.9923    0.0787 S.2     1  LIG1       -0.0869
     17 C           1.7694    1.9265   -0.2379 C.3     1  LIG1       -0.0386
     18 H           2.5080    2.5967    0.2023 H       1  LIG1        0.0278
     19 H           2.0641    1.7231   -1.2695 H       1  LIG1        0.0278
     20 H           1.7627    0.9880    0.3153 H       1  LIG1        0.0278
     21 H           0.9734    4.6663   -0.6684 H       1  LIG1        0.0632
     22 C          -1.6792    5.7012   -0.4367 C.ar    1  LIG1        0.0288
     23 C          -1.2339    6.8522    0.1524 C.ar    1  LIG1       -0.0352
     24 C          -2.0314    7.9854   -0.2334 C.ar    1  LIG1       -0.0512
     25 C          -3.0436    7.6634   -1.0798 C.ar    1  LIG1       -0.0235
     26 S          -3.0574    5.9852   -1.4491 S.2     1  LIG1       -0.0959
     27 H          -3.7843    8.3190   -1.5080 H       1  LIG1        0.0693
     28 C          -0.0732    6.9458    1.1164 C.3     1  LIG1       -0.0386
     29 H          -0.3335    7.6074    1.9434 H       1  LIG1        0.0278
     30 H           0.8091    7.3522    0.6175 H       1  LIG1        0.0278
     31 H           0.1704    5.9604    1.5118 H       1  LIG1        0.0278
     32 H          -1.8472    8.9873    0.1279 H       1  LIG1        0.0626
@<TRIPOS>BOND
     1    27    25    1
     2    26    25   ar
     3    26    22   ar
     4     9     7    1
     5    19    17    1
     6    11     3    1
     7    25    24   ar
     8    21    14    1
     9    22    15    1
    10    22    23   ar
    11     8     7    1
    12    14    15   ar
    13    14    13   ar
    14     7    10    1
    15     7     2    1
    16     3     2   ar
    17     3     4   ar
    18    15    16   ar
    19    17    13    1
    20    17    18    1
    21    17    20    1
    22    24    32    1
    23    24    23   ar
    24    13    12   ar
    25    16    12   ar
    26    12     4    1
    27    23    28    1
    28     2     1   ar
    29     4     5   ar
    30    30    28    1
    31    28    31    1
    32    28    29    1
    33     1     5   ar
    34     1     6    1
