@<TRIPOS>MOLECULE
mol_data/opt/m06hf/geoms/mol2/5ia5ia-.out
 22 23 0 0 0
SMALL
GASTEIGER

@<TRIPOS>ATOM
      1 C          -1.9171   -1.7436    0.7107 C.ar    1  LIG1       -0.0208
      2 C          -0.7735   -1.7917   -0.0249 C.ar    1  LIG1       -0.0428
      3 C          -0.3240   -0.4736   -0.3825 C.ar    1  LIG1       -0.0435
      4 C          -1.1254    0.5207    0.0959 C.ar    1  LIG1        0.0264
      5 S          -2.4533   -0.1330    0.9972 S.2     1  LIG1       -0.0959
      6 H          -2.4764   -2.5782    1.1037 H       1  LIG1        0.0696
      7 C          -0.0581   -3.0589   -0.4365 C.3     1  LIG1       -0.0392
      8 H           0.9557   -3.0686   -0.0332 H       1  LIG1        0.0278
      9 H           0.0051   -3.1216   -1.5240 H       1  LIG1        0.0278
     10 H          -0.5890   -3.9346   -0.0661 H       1  LIG1        0.0278
     11 H           0.5478   -0.2788   -0.9924 H       1  LIG1        0.0632
     12 C          -0.9521    1.9702   -0.0712 C.ar    1  LIG1        0.0288
     13 C           0.1900    2.7007    0.1096 C.ar    1  LIG1       -0.0352
     14 C          -0.0261    4.0961   -0.1636 C.ar    1  LIG1       -0.0512
     15 C          -1.3043    4.3784   -0.5272 C.ar    1  LIG1       -0.0235
     16 S          -2.2827    2.9664   -0.5652 S.2     1  LIG1       -0.0959
     17 H          -1.7272    5.3385   -0.7744 H       1  LIG1        0.0693
     18 C           1.5176    2.1430    0.5717 C.3     1  LIG1       -0.0386
     19 H           1.9765    2.8293    1.2841 H       1  LIG1        0.0278
     20 H           2.1992    2.0199   -0.2727 H       1  LIG1        0.0278
     21 H           1.3738    1.1750    1.0502 H       1  LIG1        0.0278
     22 H           0.7506    4.8425   -0.0730 H       1  LIG1        0.0626
@<TRIPOS>BOND
     1     9     7    1
     2    11     3    1
     3    17    15    1
     4    16    15   ar
     5    16    12   ar
     6    15    14   ar
     7     7    10    1
     8     7     8    1
     9     7     2    1
    10     3     2   ar
    11     3     4   ar
    12    20    18    1
    13    14    22    1
    14    14    13   ar
    15    12     4    1
    16    12    13   ar
    17     2     1   ar
    18     4     5   ar
    19    13    18    1
    20    18    21    1
    21    18    19    1
    22     1     5   ar
    23     1     6    1
