@<TRIPOS>MOLECULE
mol_data/opt/m06hf/geoms/mol2/5ia5ia5ia5ia.out
 42 45 0 0 0
SMALL
GASTEIGER

@<TRIPOS>ATOM
      1 C          -1.1253   -1.5819    1.8720 C.ar    1  LIG1       -0.0208
      2 C          -0.8071   -1.8170    0.5705 C.ar    1  LIG1       -0.0428
      3 C          -0.6152   -0.5896   -0.1530 C.ar    1  LIG1       -0.0435
      4 C          -0.7839    0.5246    0.6160 C.ar    1  LIG1        0.0264
      5 S          -1.1841    0.0987    2.2474 S.2     1  LIG1       -0.0959
      6 H          -1.3309   -2.3138    2.6376 H       1  LIG1        0.0696
      7 C          -0.6793   -3.1865   -0.0585 C.3     1  LIG1       -0.0392
      8 H           0.3312   -3.3333   -0.4424 H       1  LIG1        0.0278
      9 H          -1.3804   -3.2875   -0.8883 H       1  LIG1        0.0278
     10 H          -0.8907   -3.9641    0.6743 H       1  LIG1        0.0278
     11 H          -0.3863   -0.5411   -1.2091 H       1  LIG1        0.0632
     12 C          -0.6474    1.9274    0.2007 C.ar    1  LIG1        0.0294
     13 C           0.3776    2.4867   -0.5136 C.ar    1  LIG1       -0.0346
     14 C           0.1539    3.8841   -0.7506 C.ar    1  LIG1       -0.0429
     15 C          -1.0078    4.3521   -0.2087 C.ar    1  LIG1        0.0270
     16 S          -1.8707    3.0890    0.5987 S.2     1  LIG1       -0.0869
     17 C           1.6091    1.7521   -0.9936 C.3     1  LIG1       -0.0386
     18 H           2.4859    2.3900   -0.8794 H       1  LIG1        0.0278
     19 H           1.5122    1.4883   -2.0489 H       1  LIG1        0.0278
     20 H           1.7520    0.8394   -0.4166 H       1  LIG1        0.0278
     21 H           0.8302    4.5123   -1.3147 H       1  LIG1        0.0632
     22 C          -1.5208    5.7289   -0.2429 C.ar    1  LIG1        0.0294
     23 C          -0.8506    6.8742    0.0909 C.ar    1  LIG1       -0.0346
     24 C          -1.6733    8.0368   -0.0872 C.ar    1  LIG1       -0.0429
     25 C          -2.9329    7.7532   -0.5282 C.ar    1  LIG1        0.0270
     26 S          -3.1448    6.0515   -0.7541 S.2     1  LIG1       -0.0869
     27 C           0.5724    6.9348    0.5983 C.3     1  LIG1       -0.0386
     28 H           0.6442    7.6577    1.4114 H       1  LIG1        0.0278
     29 H           1.2500    7.2472   -0.1989 H       1  LIG1        0.0278
     30 H           0.8846    5.9565    0.9616 H       1  LIG1        0.0278
     31 H          -1.3312    9.0463    0.0959 H       1  LIG1        0.0632
     32 C          -4.0253    8.7017   -0.7850 C.ar    1  LIG1        0.0288
     33 C          -4.4565    9.7157    0.0259 C.ar    1  LIG1       -0.0352
     34 C          -5.5468   10.4406   -0.5698 C.ar    1  LIG1       -0.0512
     35 C          -5.9082    9.9588   -1.7868 C.ar    1  LIG1       -0.0235
     36 S          -4.9352    8.6240   -2.2602 S.2     1  LIG1       -0.0959
     37 H          -6.6940   10.3136   -2.4337 H       1  LIG1        0.0693
     38 C          -3.8954   10.0388    1.3924 C.3     1  LIG1       -0.0386
     39 H          -4.7058   10.3142    2.0678 H       1  LIG1        0.0278
     40 H          -3.1991   10.8779    1.3332 H       1  LIG1        0.0278
     41 H          -3.3694    9.1760    1.7996 H       1  LIG1        0.0278
     42 H          -6.0342   11.2759   -0.0868 H       1  LIG1        0.0626
@<TRIPOS>BOND
     1    37    35    1
     2    36    35   ar
     3    36    32   ar
     4    19    17    1
     5    35    34   ar
     6    21    14    1
     7    11     3    1
     8    17    18    1
     9    17    13    1
    10    17    20    1
    11     9     7    1
    12    32    25    1
    13    32    33   ar
    14    26    25   ar
    15    26    22   ar
    16    14    13   ar
    17    14    15   ar
    18    34    42    1
    19    34    33   ar
    20    25    24   ar
    21    13    12   ar
    22     8     7    1
    23    22    15    1
    24    22    23   ar
    25    15    16   ar
    26    29    27    1
    27     3     2   ar
    28     3     4   ar
    29    24    23   ar
    30    24    31    1
    31     7     2    1
    32     7    10    1
    33    33    38    1
    34    23    27    1
    35    12    16   ar
    36    12     4    1
    37     2     1   ar
    38    27    30    1
    39    27    28    1
    40     4     5   ar
    41    40    38    1
    42    38    41    1
    43    38    39    1
    44     1     5   ar
    45     1     6    1
