@<TRIPOS>MOLECULE
mol_data/opt/m06hf/geoms/mol2/5ia5ia-5ia5ia.out
 42 45 0 0 0
SMALL
GASTEIGER

@<TRIPOS>ATOM
      1 C          -1.1088   -1.5873    1.8681 C.ar    1  LIG1       -0.0208
      2 C          -0.8019   -1.8186    0.5632 C.ar    1  LIG1       -0.0428
      3 C          -0.6163   -0.5891   -0.1585 C.ar    1  LIG1       -0.0435
      4 C          -0.7784    0.5228    0.6152 C.ar    1  LIG1        0.0264
      5 S          -1.1644    0.0923    2.2488 S.2     1  LIG1       -0.0959
      6 H          -1.3076   -2.3214    2.6334 H       1  LIG1        0.0696
      7 C          -0.6795   -3.1864   -0.0708 C.3     1  LIG1       -0.0392
      8 H           0.3277   -3.3321   -0.4636 H       1  LIG1        0.0278
      9 H          -1.3876   -3.2849   -0.8949 H       1  LIG1        0.0278
     10 H          -0.8848   -3.9660    0.6616 H       1  LIG1        0.0278
     11 H          -0.3967   -0.5376   -1.2164 H       1  LIG1        0.0632
     12 C          -0.6456    1.9268    0.2028 C.ar    1  LIG1        0.0294
     13 C           0.3730    2.4882   -0.5189 C.ar    1  LIG1       -0.0346
     14 C           0.1473    3.8864   -0.7497 C.ar    1  LIG1       -0.0429
     15 C          -1.0096    4.3527   -0.1962 C.ar    1  LIG1        0.0270
     16 S          -1.8654    3.0872    0.6150 S.2     1  LIG1       -0.0869
     17 C           1.6002    1.7551   -1.0120 C.3     1  LIG1       -0.0386
     18 H           2.4779    2.3928   -0.9041 H       1  LIG1        0.0278
     19 H           1.4937    1.4940   -2.0670 H       1  LIG1        0.0278
     20 H           1.7484    0.8409   -0.4386 H       1  LIG1        0.0278
     21 H           0.8186    4.5163   -1.3178 H       1  LIG1        0.0632
     22 C          -1.5230    5.7296   -0.2220 C.ar    1  LIG1        0.0294
     23 C          -0.8500    6.8739    0.1095 C.ar    1  LIG1       -0.0346
     24 C          -1.6742    8.0370   -0.0581 C.ar    1  LIG1       -0.0429
     25 C          -2.9375    7.7547   -0.4892 C.ar    1  LIG1        0.0270
     26 S          -3.1513    6.0536   -0.7183 S.2     1  LIG1       -0.0869
     27 C           0.5773    6.9331    0.6049 C.3     1  LIG1       -0.0386
     28 H           0.6560    7.6533    1.4197 H       1  LIG1        0.0278
     29 H           1.2481    7.2482   -0.1971 H       1  LIG1        0.0278
     30 H           0.8928    5.9536    0.9623 H       1  LIG1        0.0278
     31 H          -1.3305    9.0460    0.1250 H       1  LIG1        0.0632
     32 C          -4.0320    8.7039   -0.7338 C.ar    1  LIG1        0.0288
     33 C          -4.4563    9.7155    0.0836 C.ar    1  LIG1       -0.0352
     34 C          -5.5518   10.4420   -0.5006 C.ar    1  LIG1       -0.0512
     35 C          -5.9235    9.9637   -1.7159 C.ar    1  LIG1       -0.0235
     36 S          -4.9545    8.6304   -2.2015 S.2     1  LIG1       -0.0959
     37 H          -6.7148   10.3204   -2.3550 H       1  LIG1        0.0693
     38 C          -3.8837   10.0346    1.4462 C.3     1  LIG1       -0.0386
     39 H          -4.6884   10.3075    2.1295 H       1  LIG1        0.0278
     40 H          -3.1883   10.8743    1.3837 H       1  LIG1        0.0278
     41 H          -3.3538    9.1709    1.8462 H       1  LIG1        0.0278
     42 H          -6.0352   11.2758   -0.0110 H       1  LIG1        0.0626
@<TRIPOS>BOND
     1    37    35    1
     2    36    35   ar
     3    36    32   ar
     4    19    17    1
     5    35    34   ar
     6    21    14    1
     7    11     3    1
     8    17    18    1
     9    17    13    1
    10    17    20    1
    11     9     7    1
    12    14    13   ar
    13    14    15   ar
    14    32    25    1
    15    32    33   ar
    16    26    25   ar
    17    26    22   ar
    18    13    12   ar
    19    34    42    1
    20    34    33   ar
    21    25    24   ar
    22     8     7    1
    23    22    15    1
    24    22    23   ar
    25    29    27    1
    26    15    16   ar
    27     3     2   ar
    28     3     4   ar
    29     7     2    1
    30     7    10    1
    31    24    23   ar
    32    24    31    1
    33    33    38    1
    34    23    27    1
    35    12    16   ar
    36    12     4    1
    37     2     1   ar
    38    27    30    1
    39    27    28    1
    40     4     5   ar
    41    40    38    1
    42    38    41    1
    43    38    39    1
    44     1     5   ar
    45     1     6    1
