@<TRIPOS>MOLECULE
mol_data/opt/m06hf/geoms/mol2/5ia5ia5ia-5ia.out
 42 45 0 0 0
SMALL
GASTEIGER

@<TRIPOS>ATOM
      1 C          -1.1406   -1.5837    1.8664 C.ar    1  LIG1       -0.0208
      2 C          -0.8118   -1.8175    0.5672 C.ar    1  LIG1       -0.0428
      3 C          -0.6139   -0.5895   -0.1536 C.ar    1  LIG1       -0.0435
      4 C          -0.7890    0.5240    0.6150 C.ar    1  LIG1        0.0264
      5 S          -1.2025    0.0967    2.2427 S.2     1  LIG1       -0.0959
      6 H          -1.3524   -2.3163    2.6295 H       1  LIG1        0.0696
      7 C          -0.6788   -3.1865   -0.0619 C.3     1  LIG1       -0.0392
      8 H           0.3348   -3.3331   -0.4374 H       1  LIG1        0.0278
      9 H          -1.3729   -3.2867   -0.8977 H       1  LIG1        0.0278
     10 H          -0.8965   -3.9647    0.6684 H       1  LIG1        0.0278
     11 H          -0.3765   -0.5400   -1.2078 H       1  LIG1        0.0632
     12 C          -0.6491    1.9272    0.2022 C.ar    1  LIG1        0.0294
     13 C           0.3816    2.4871   -0.5032 C.ar    1  LIG1       -0.0346
     14 C           0.1599    3.8848   -0.7406 C.ar    1  LIG1       -0.0429
     15 C          -1.0061    4.3523   -0.2076 C.ar    1  LIG1        0.0270
     16 S          -1.8756    3.0885    0.5915 S.2     1  LIG1       -0.0869
     17 C           1.6168    1.7530   -0.9741 C.3     1  LIG1       -0.0386
     18 H           2.4927    2.3908   -0.8527 H       1  LIG1        0.0278
     19 H           1.5282    1.4899   -2.0303 H       1  LIG1        0.0278
     20 H           1.7553    0.8398   -0.3967 H       1  LIG1        0.0278
     21 H           0.8408    4.5136   -1.2985 H       1  LIG1        0.0632
     22 C          -1.5188    5.7291   -0.2447 C.ar    1  LIG1        0.0294
     23 C          -0.8514    6.8741    0.0958 C.ar    1  LIG1       -0.0346
     24 C          -1.6726    8.0369   -0.0879 C.ar    1  LIG1       -0.0429
     25 C          -2.9285    7.7538   -0.5397 C.ar    1  LIG1        0.0270
     26 S          -3.1385    6.0523   -0.7691 S.2     1  LIG1       -0.0869
     27 C           0.5673    6.9342    0.6152 C.3     1  LIG1       -0.0386
     28 H           0.6323    7.6560    1.4298 H       1  LIG1        0.0278
     29 H           1.2515    7.2477   -0.1759 H       1  LIG1        0.0278
     30 H           0.8765    5.9554    0.9798 H       1  LIG1        0.0278
     31 H          -1.3320    9.0462    0.0991 H       1  LIG1        0.0632
     32 C          -4.0187    8.7026   -0.8046 C.ar    1  LIG1        0.0288
     33 C          -4.4566    9.7158    0.0036 C.ar    1  LIG1       -0.0352
     34 C          -5.5420   10.4412   -0.6004 C.ar    1  LIG1       -0.0512
     35 C          -5.8931    9.9606   -1.8209 C.ar    1  LIG1       -0.0235
     36 S          -4.9162    8.6263   -2.2875 S.2     1  LIG1       -0.0959
     37 H          -6.6736   10.3160   -2.4740 H       1  LIG1        0.0693
     38 C          -3.9071   10.0375    1.3750 C.3     1  LIG1       -0.0386
     39 H          -4.7231   10.3119    2.0441 H       1  LIG1        0.0278
     40 H          -3.2106   10.8770    1.3226 H       1  LIG1        0.0278
     41 H          -3.3841    9.1745    1.7856 H       1  LIG1        0.0278
     42 H          -6.0335   11.2760   -0.1207 H       1  LIG1        0.0626
@<TRIPOS>BOND
     1    37    35    1
     2    36    35   ar
     3    36    32   ar
     4    19    17    1
     5    35    34   ar
     6    21    14    1
     7    11     3    1
     8    17    18    1
     9    17    13    1
    10    17    20    1
    11     9     7    1
    12    32    25    1
    13    32    33   ar
    14    26    25   ar
    15    26    22   ar
    16    14    13   ar
    17    14    15   ar
    18    34    42    1
    19    34    33   ar
    20    25    24   ar
    21    13    12   ar
    22     8     7    1
    23    22    15    1
    24    22    23   ar
    25    15    16   ar
    26    29    27    1
    27     3     2   ar
    28     3     4   ar
    29    24    23   ar
    30    24    31    1
    31     7     2    1
    32     7    10    1
    33    33    38    1
    34    23    27    1
    35    12    16   ar
    36    12     4    1
    37     2     1   ar
    38     4     5   ar
    39    27    30    1
    40    27    28    1
    41    40    38    1
    42    38    41    1
    43    38    39    1
    44     1     5   ar
    45     1     6    1
