@<TRIPOS>MOLECULE
mol_data/opt/m06hf/geoms/mol2/5id.out
 13 13 0 0 0
SMALL
GASTEIGER

@<TRIPOS>ATOM
      1 C          -2.1323   -1.6592    0.0860 C.ar    1  LIG1       -0.0202
      2 C          -0.7751   -1.6722    0.0236 C.ar    1  LIG1       -0.0261
      3 C          -0.2627   -0.3246   -0.0360 C.ar    1  LIG1        0.0617
      4 C          -1.2316    0.6357   -0.0166 C.ar    1  LIG1       -0.0067
      5 S          -2.7873   -0.0667    0.0741 S.2     1  LIG1       -0.1035
      6 H          -2.7899   -2.5123    0.1391 H       1  LIG1        0.0696
      7 H          -1.0944    1.7043   -0.0514 H       1  LIG1        0.0706
      8 C           0.1083   -2.8973    0.0153 C.3     1  LIG1       -0.0380
      9 H           0.7875   -2.8741    0.8684 H       1  LIG1        0.0278
     10 H           0.7054   -2.9212   -0.8972 H       1  LIG1        0.0278
     11 H          -0.4994   -3.7988    0.0676 H       1  LIG1        0.0278
     12 N           2.2742    0.1796   -0.1668 N.1     1  LIG1       -0.1908
     13 C           1.1466   -0.0283   -0.1091 C.1     1  LIG1        0.0999
@<TRIPOS>BOND
     1    10     8    1
     2    12    13    3
     3    13     3    1
     4     7     4    1
     5     3     4   ar
     6     3     2   ar
     7     4     5   ar
     8     8     2    1
     9     8    11    1
    10     8     9    1
    11     2     1   ar
    12     5     1   ar
    13     1     6    1
