@<TRIPOS>MOLECULE
mol_data/opt/m06hf/geoms/mol2/5id5id5id5id-.out
 46 49 0 0 0
SMALL
GASTEIGER

@<TRIPOS>ATOM
      1 C          -1.1555   -1.5229    2.1488 C.ar    1  LIG1       -0.0196
      2 C          -0.8099   -1.7990    0.8638 C.ar    1  LIG1       -0.0255
      3 C          -0.5641   -0.5803    0.1363 C.ar    1  LIG1        0.0699
      4 C          -0.7162    0.5604    0.8826 C.ar    1  LIG1        0.0438
      5 S          -1.1715    0.1644    2.4939 S.2     1  LIG1       -0.0945
      6 H          -1.4035   -2.2316    2.9233 H       1  LIG1        0.0696
      7 C          -0.6998   -3.1713    0.2426 C.3     1  LIG1       -0.0380
      8 H           0.3172   -3.3394   -0.1135 H       1  LIG1        0.0278
      9 H          -1.3782   -3.2520   -0.6074 H       1  LIG1        0.0278
     10 H          -0.9524   -3.9352    0.9755 H       1  LIG1        0.0278
     11 N           0.0381   -0.5707   -2.3805 N.1     1  LIG1       -0.1908
     12 C          -0.2318   -0.5615   -1.2646 C.1     1  LIG1        0.1006
     13 C          -0.5415    1.9493    0.4422 C.ar    1  LIG1        0.0319
     14 C           0.5335    2.4875   -0.2099 C.ar    1  LIG1       -0.0172
     15 C           0.3039    3.8809   -0.4831 C.ar    1  LIG1        0.0705
     16 C          -0.8960    4.3621   -0.0248 C.ar    1  LIG1        0.0444
     17 S          -1.7926    3.1107    0.7397 S.2     1  LIG1       -0.0856
     18 C           1.8079    1.7767   -0.5952 C.3     1  LIG1       -0.0374
     19 H           2.6585    2.4339   -0.4148 H       1  LIG1        0.0278
     20 H           1.7816    1.5111   -1.6532 H       1  LIG1        0.0278
     21 H           1.9220    0.8669   -0.0073 H       1  LIG1        0.0278
     22 N           2.0225    5.3514   -1.7418 N.1     1  LIG1       -0.1908
     23 C           1.2511    4.7035   -1.1907 C.1     1  LIG1        0.1006
     24 C          -1.4052    5.7343   -0.1333 C.ar    1  LIG1        0.0319
     25 C          -0.7663    6.8853    0.2366 C.ar    1  LIG1       -0.0172
     26 C          -1.5850    8.0282   -0.0665 C.ar    1  LIG1        0.0705
     27 C          -2.8012    7.7267   -0.6246 C.ar    1  LIG1        0.0444
     28 S          -2.9742    6.0281   -0.8106 S.2     1  LIG1       -0.0856
     29 C           0.5921    7.0010    0.8842 C.3     1  LIG1       -0.0374
     30 H           0.5520    7.7430    1.6821 H       1  LIG1        0.0278
     31 H           1.3305    7.3146    0.1444 H       1  LIG1        0.0278
     32 H           0.8946    6.0401    1.2985 H       1  LIG1        0.0278
     33 N          -0.8019   10.4510    0.3953 N.1     1  LIG1       -0.1908
     34 C          -1.1558    9.3806    0.1789 C.1     1  LIG1        0.1006
     35 C          -3.8540    8.6673   -1.0261 C.ar    1  LIG1        0.0313
     36 C          -4.4189    9.6501   -0.2620 C.ar    1  LIG1       -0.0178
     37 C          -5.3995   10.3745   -1.0299 C.ar    1  LIG1        0.0623
     38 C          -5.5465    9.9278   -2.3104 C.ar    1  LIG1       -0.0061
     39 S          -4.4980    8.6211   -2.6370 S.2     1  LIG1       -0.0945
     40 H          -6.2179   10.3099   -3.0624 H       1  LIG1        0.0706
     41 C          -4.1192    9.9597    1.1847 C.3     1  LIG1       -0.0374
     42 H          -5.0514   10.1592    1.7132 H       1  LIG1        0.0278
     43 H          -3.4779   10.8401    1.2504 H       1  LIG1        0.0278
     44 H          -3.6100    9.1187    1.6533 H       1  LIG1        0.0278
     45 N          -6.7754   12.3203   -0.0182 N.1     1  LIG1       -0.1908
     46 C          -6.1691   11.4624   -0.4800 C.1     1  LIG1        0.1000
@<TRIPOS>BOND
     1    40    38    1
     2    39    38   ar
     3    39    35   ar
     4    11    12    3
     5    38    37   ar
     6    22    23    3
     7    20    18    1
     8    12     3    1
     9    23    15    1
    10    37    46    1
    11    37    36   ar
    12    35    27    1
    13    35    36   ar
    14    28    27   ar
    15    28    24   ar
    16    27    26   ar
    17     9     7    1
    18    18    19    1
    19    18    14    1
    20    18    21    1
    21    15    14   ar
    22    15    16   ar
    23    46    45    3
    24    36    41    1
    25    14    13   ar
    26    24    16    1
    27    24    25   ar
    28     8     7    1
    29    26    34    1
    30    26    25   ar
    31    16    17   ar
    32     3     2   ar
    33     3     4   ar
    34    31    29    1
    35    34    33    3
    36    25    29    1
    37     7     2    1
    38     7    10    1
    39    13    17   ar
    40    13     4    1
    41     2     1   ar
    42     4     5   ar
    43    29    32    1
    44    29    30    1
    45    41    43    1
    46    41    44    1
    47    41    42    1
    48     1     5   ar
    49     1     6    1
