@<TRIPOS>MOLECULE
mol_data/opt/m06hf/geoms/mol2/5id5id5id-.out
 35 37 0 0 0
SMALL
GASTEIGER

@<TRIPOS>ATOM
      1 C          -1.6212   -1.7113    1.4620 C.ar    1  LIG1       -0.0196
      2 C          -0.8165   -1.8721    0.3791 C.ar    1  LIG1       -0.0255
      3 C          -0.4172   -0.5913   -0.1441 C.ar    1  LIG1        0.0699
      4 C          -0.9143    0.4805    0.5525 C.ar    1  LIG1        0.0438
      5 S          -1.8872   -0.0588    1.8645 S.2     1  LIG1       -0.0945
      6 H          -2.0775   -2.4887    2.0544 H       1  LIG1        0.0696
      7 C          -0.3923   -3.1861   -0.2326 C.3     1  LIG1       -0.0380
      8 H           0.6942   -3.2773   -0.2082 H       1  LIG1        0.0278
      9 H          -0.7178   -3.2353   -1.2725 H       1  LIG1        0.0278
     10 H          -0.8321   -4.0149    0.3190 H       1  LIG1        0.0278
     11 N           1.0544   -0.3471   -2.2593 N.1     1  LIG1       -0.1908
     12 C           0.3979   -0.4457   -1.3224 C.1     1  LIG1        0.1006
     13 C          -0.6994    1.9039    0.2667 C.ar    1  LIG1        0.0319
     14 C           0.4949    2.5429    0.0811 C.ar    1  LIG1       -0.0172
     15 C           0.2760    3.9310   -0.2261 C.ar    1  LIG1        0.0705
     16 C          -1.0417    4.3098   -0.2463 C.ar    1  LIG1        0.0444
     17 S          -2.0585    2.9695    0.0995 S.2     1  LIG1       -0.0856
     18 C           1.8725    1.9342    0.1830 C.3     1  LIG1       -0.0374
     19 H           2.5354    2.6222    0.7081 H       1  LIG1        0.0278
     20 H           2.2714    1.7486   -0.8154 H       1  LIG1        0.0278
     21 H           1.8263    0.9905    0.7249 H       1  LIG1        0.0278
     22 N           2.2180    5.5671   -0.7277 N.1     1  LIG1       -0.1908
     23 C           1.3506    4.8458   -0.5137 C.1     1  LIG1        0.1006
     24 C          -1.5801    5.6455   -0.5277 C.ar    1  LIG1        0.0313
     25 C          -1.2219    6.8261    0.0597 C.ar    1  LIG1       -0.0178
     26 C          -1.9629    7.9161   -0.5228 C.ar    1  LIG1        0.0623
     27 C          -2.8388    7.5377   -1.4980 C.ar    1  LIG1       -0.0061
     28 S          -2.7925    5.8511   -1.7539 S.2     1  LIG1       -0.0945
     29 H          -3.4980    8.1742   -2.0659 H       1  LIG1        0.0706
     30 C          -0.2270    7.0176    1.1786 C.3     1  LIG1       -0.0374
     31 H          -0.6290    7.7268    1.9025 H       1  LIG1        0.0278
     32 H           0.7098    7.4100    0.7797 H       1  LIG1        0.0278
     33 H          -0.0283    6.0679    1.6737 H       1  LIG1        0.0278
     34 N          -1.6775   10.3639    0.2724 N.1     1  LIG1       -0.1908
     35 C          -1.8075    9.2830   -0.0913 C.1     1  LIG1        0.1000
@<TRIPOS>BOND
     1    11    12    3
     2    29    27    1
     3    28    27   ar
     4    28    24   ar
     5    27    26   ar
     6    12     3    1
     7     9     7    1
     8    20    18    1
     9    22    23    3
    10    24    16    1
    11    24    25   ar
    12    26    35    1
    13    26    25   ar
    14    23    15    1
    15    16    15   ar
    16    16    17   ar
    17     7     8    1
    18     7    10    1
    19     7     2    1
    20    15    14   ar
    21     3     2   ar
    22     3     4   ar
    23    35    34    3
    24    25    30    1
    25    14    18    1
    26    14    13   ar
    27    17    13   ar
    28    18    19    1
    29    18    21    1
    30    13     4    1
    31     2     1   ar
    32     4     5   ar
    33    32    30    1
    34    30    33    1
    35    30    31    1
    36     1     5   ar
    37     1     6    1
