@<TRIPOS>MOLECULE
mol_data/opt/m06hf/geoms/mol2/5id5id-5id-5id.out
 46 49 0 0 0
SMALL
GASTEIGER

@<TRIPOS>ATOM
      1 C          -1.1328   -1.5362    2.1262 C.ar    1  LIG1       -0.0196
      2 C          -0.8029   -1.8045    0.8354 C.ar    1  LIG1       -0.0255
      3 C          -0.5652   -0.5816    0.1125 C.ar    1  LIG1        0.0699
      4 C          -0.7077    0.5547    0.8676 C.ar    1  LIG1        0.0438
      5 S          -1.1439    0.1489    2.4818 S.2     1  LIG1       -0.0945
      6 H          -1.3719   -2.2495    2.8992 H       1  LIG1        0.0696
      7 C          -0.7011   -3.1730    0.2045 C.3     1  LIG1       -0.0380
      8 H           0.3115   -3.3395   -0.1648 H       1  LIG1        0.0278
      9 H          -1.3897   -3.2483   -0.6377 H       1  LIG1        0.0278
     10 H          -0.9452   -3.9413    0.9357 H       1  LIG1        0.0278
     11 N           0.0066   -0.5568   -2.4113 N.1     1  LIG1       -0.1908
     12 C          -0.2499   -0.5543   -1.2921 C.1     1  LIG1        0.1006
     13 C          -0.5376    1.9462    0.4336 C.ar    1  LIG1        0.0319
     14 C           0.5297    2.4878   -0.2281 C.ar    1  LIG1       -0.0172
     15 C           0.2976    3.8830   -0.4900 C.ar    1  LIG1        0.0705
     16 C          -0.8965    4.3619   -0.0143 C.ar    1  LIG1        0.0444
     17 S          -1.7845    3.1063    0.7533 S.2     1  LIG1       -0.0856
     18 C           1.7990    1.7789   -0.6331 C.3     1  LIG1       -0.0374
     19 H           2.6520    2.4346   -0.4589 H       1  LIG1        0.0278
     20 H           1.7598    1.5198   -1.6923 H       1  LIG1        0.0278
     21 H           1.9197    0.8654   -0.0522 H       1  LIG1        0.0278
     22 N           2.0016    5.3604   -1.7602 N.1     1  LIG1       -0.1908
     23 C           1.2366    4.7095   -1.2038 C.1     1  LIG1        0.1006
     24 C          -1.4063    5.7350   -0.1082 C.ar    1  LIG1        0.0319
     25 C          -0.7623    6.8834    0.2610 C.ar    1  LIG1       -0.0172
     26 C          -1.5841    8.0286   -0.0252 C.ar    1  LIG1        0.0705
     27 C          -2.8070    7.7310   -0.5705 C.ar    1  LIG1        0.0444
     28 S          -2.9832    6.0336   -0.7648 S.2     1  LIG1       -0.0856
     29 C           0.6039    6.9946    0.8929 C.3     1  LIG1       -0.0374
     30 H           0.5738    7.7317    1.6958 H       1  LIG1        0.0278
     31 H           1.3334    7.3123    0.1461 H       1  LIG1        0.0278
     32 H           0.9108    6.0310    1.2976 H       1  LIG1        0.0278
     33 N          -0.7942   10.4481    0.4419 N.1     1  LIG1       -0.1908
     34 C          -1.1512    9.3792    0.2233 C.1     1  LIG1        0.1006
     35 C          -3.8641    8.6745   -0.9534 C.ar    1  LIG1        0.0313
     36 C          -4.4192    9.6529   -0.1766 C.ar    1  LIG1       -0.0178
     37 C          -5.4087   10.3823   -0.9282 C.ar    1  LIG1        0.0623
     38 C          -5.5712    9.9437   -2.2096 C.ar    1  LIG1       -0.0061
     39 S          -4.5274    8.6384   -2.5568 S.2     1  LIG1       -0.0945
     40 H          -6.2515   10.3306   -2.9511 H       1  LIG1        0.0706
     41 C          -4.1020    9.9535    1.2682 C.3     1  LIG1       -0.0374
     42 H          -5.0277   10.1501    1.8091 H       1  LIG1        0.0278
     43 H          -3.4595   10.8331    1.3316 H       1  LIG1        0.0278
     44 H          -3.5876    9.1093    1.7255 H       1  LIG1        0.0278
     45 N          -6.7712   12.3225    0.1119 N.1     1  LIG1       -0.1908
     46 C          -6.1709   11.4673   -0.3624 C.1     1  LIG1        0.1000
@<TRIPOS>BOND
     1    40    38    1
     2    39    38   ar
     3    39    35   ar
     4    11    12    3
     5    38    37   ar
     6    22    23    3
     7    20    18    1
     8    12     3    1
     9    23    15    1
    10    35    27    1
    11    35    36   ar
    12    37    46    1
    13    37    36   ar
    14    28    27   ar
    15    28    24   ar
    16     9     7    1
    17    18    19    1
    18    18    14    1
    19    18    21    1
    20    27    26   ar
    21    15    14   ar
    22    15    16   ar
    23    46    45    3
    24    14    13   ar
    25    36    41    1
    26     8     7    1
    27    24    16    1
    28    24    25   ar
    29    26    34    1
    30    26    25   ar
    31    16    17   ar
    32     3     2   ar
    33     3     4   ar
    34    31    29    1
    35     7     2    1
    36     7    10    1
    37    34    33    3
    38    25    29    1
    39    13    17   ar
    40    13     4    1
    41     2     1   ar
    42     4     5   ar
    43    29    32    1
    44    29    30    1
    45    41    43    1
    46    41    44    1
    47    41    42    1
    48     1     5   ar
    49     1     6    1
