@<TRIPOS>MOLECULE
mol_data/opt/m06hf/geoms/mol2/5id5id-5id-5id-.out
 46 49 0 0 0
SMALL
GASTEIGER

@<TRIPOS>ATOM
      1 C          -1.1463   -1.5349    2.1271 C.ar    1  LIG1       -0.0196
      2 C          -0.8119   -1.8045    0.8377 C.ar    1  LIG1       -0.0255
      3 C          -0.5704   -0.5823    0.1148 C.ar    1  LIG1        0.0699
      4 C          -0.7147    0.5546    0.8685 C.ar    1  LIG1        0.0438
      5 S          -1.1571    0.1505    2.4814 S.2     1  LIG1       -0.0945
      6 H          -1.3889   -2.2475    2.8997 H       1  LIG1        0.0696
      7 C          -0.7090   -3.1735    0.2082 C.3     1  LIG1       -0.0380
      8 H           0.3048   -3.3412   -0.1574 H       1  LIG1        0.0278
      9 H          -1.3946   -3.2488   -0.6365 H       1  LIG1        0.0278
     10 H          -0.9565   -3.9411    0.9390 H       1  LIG1        0.0278
     11 N           0.0108   -0.5599   -2.4069 N.1     1  LIG1       -0.1908
     12 C          -0.2498   -0.5563   -1.2887 C.1     1  LIG1        0.1006
     13 C          -0.5417    1.9457    0.4341 C.ar    1  LIG1        0.0319
     14 C           0.5286    2.4859   -0.2240 C.ar    1  LIG1       -0.0172
     15 C           0.2987    3.8810   -0.4877 C.ar    1  LIG1        0.0705
     16 C          -0.8966    4.3614   -0.0168 C.ar    1  LIG1        0.0444
     17 S          -1.7887    3.1071    0.7484 S.2     1  LIG1       -0.0856
     18 C           1.7987    1.7755   -0.6238 C.3     1  LIG1       -0.0374
     19 H           2.6517    2.4305   -0.4470 H       1  LIG1        0.0278
     20 H           1.7632    1.5156   -1.6830 H       1  LIG1        0.0278
     21 H           1.9164    0.8623   -0.0418 H       1  LIG1        0.0278
     22 N           2.0088    5.3559   -1.7528 N.1     1  LIG1       -0.1908
     23 C           1.2411    4.7062   -1.1987 C.1     1  LIG1        0.1006
     24 C          -1.4049    5.7348   -0.1136 C.ar    1  LIG1        0.0319
     25 C          -0.7612    6.8830    0.2571 C.ar    1  LIG1       -0.0172
     26 C          -1.5808    8.0287   -0.0330 C.ar    1  LIG1        0.0705
     27 C          -2.8020    7.7318   -0.5825 C.ar    1  LIG1        0.0444
     28 S          -2.9790    6.0345   -0.7762 S.2     1  LIG1       -0.0856
     29 C           0.6027    6.9933    0.8940 C.3     1  LIG1       -0.0374
     30 H           0.5703    7.7310    1.6962 H       1  LIG1        0.0278
     31 H           1.3353    7.3099    0.1497 H       1  LIG1        0.0278
     32 H           0.9073    6.0298    1.3005 H       1  LIG1        0.0278
     33 N          -0.7905   10.4478    0.4354 N.1     1  LIG1       -0.1908
     34 C          -1.1477    9.3791    0.2161 C.1     1  LIG1        0.1006
     35 C          -3.8568    8.6760   -0.9700 C.ar    1  LIG1        0.0313
     36 C          -4.4139    9.6554   -0.1960 C.ar    1  LIG1       -0.0178
     37 C          -5.4000   10.3853   -0.9517 C.ar    1  LIG1        0.0623
     38 C          -5.5582    9.9458   -2.2334 C.ar    1  LIG1       -0.0061
     39 S          -4.5143    8.6394   -2.5758 S.2     1  LIG1       -0.0945
     40 H          -6.2354   10.3328   -2.9777 H       1  LIG1        0.0706
     41 C          -4.1018    9.9568    1.2498 C.3     1  LIG1       -0.0374
     42 H          -5.0293   10.1547    1.7871 H       1  LIG1        0.0278
     43 H          -3.4587   10.8359    1.3149 H       1  LIG1        0.0278
     44 H          -3.5899    9.1125    1.7096 H       1  LIG1        0.0278
     45 N          -6.7645   12.3275    0.0819 N.1     1  LIG1       -0.1908
     46 C          -6.1633   11.4713   -0.3896 C.1     1  LIG1        0.1000
@<TRIPOS>BOND
     1    40    38    1
     2    39    38   ar
     3    39    35   ar
     4    11    12    3
     5    38    37   ar
     6    22    23    3
     7    20    18    1
     8    12     3    1
     9    23    15    1
    10    35    27    1
    11    35    36   ar
    12    37    46    1
    13    37    36   ar
    14    28    27   ar
    15    28    24   ar
    16     9     7    1
    17    18    19    1
    18    18    14    1
    19    18    21    1
    20    27    26   ar
    21    15    14   ar
    22    15    16   ar
    23    46    45    3
    24    14    13   ar
    25    36    41    1
    26     8     7    1
    27    24    16    1
    28    24    25   ar
    29    26    34    1
    30    26    25   ar
    31    16    17   ar
    32     3     2   ar
    33     3     4   ar
    34    31    29    1
    35     7     2    1
    36     7    10    1
    37    34    33    3
    38    25    29    1
    39    13    17   ar
    40    13     4    1
    41     2     1   ar
    42     4     5   ar
    43    29    32    1
    44    29    30    1
    45    41    43    1
    46    41    44    1
    47    41    42    1
    48     1     5   ar
    49     1     6    1
