@<TRIPOS>MOLECULE
mol_data/opt/m06hf/geoms/mol2/5id5id-.out
 24 25 0 0 0
SMALL
GASTEIGER

@<TRIPOS>ATOM
      1 C          -1.9524   -1.7342    0.7947 C.ar    1  LIG1       -0.0196
      2 C          -0.7784   -1.8318    0.1175 C.ar    1  LIG1       -0.0255
      3 C          -0.3111   -0.5253   -0.2694 C.ar    1  LIG1        0.0699
      4 C          -1.1242    0.5042    0.1305 C.ar    1  LIG1        0.0438
      5 S          -2.4836   -0.1079    0.9877 S.2     1  LIG1       -0.0945
      6 H          -2.5395   -2.5434    1.1991 H       1  LIG1        0.0696
      7 C          -0.0433   -3.1087   -0.2145 C.3     1  LIG1       -0.0380
      8 H           0.9542   -3.0921    0.2264 H       1  LIG1        0.0278
      9 H           0.0620   -3.2105   -1.2954 H       1  LIG1        0.0278
     10 H          -0.5908   -3.9658    0.1733 H       1  LIG1        0.0278
     11 N           1.8529   -0.1777   -1.6463 N.1     1  LIG1       -0.1908
     12 C           0.8881   -0.3205   -1.0398 C.1     1  LIG1        0.1006
     13 C          -0.9317    1.9403   -0.1012 C.ar    1  LIG1        0.0313
     14 C           0.1846    2.6838    0.1610 C.ar    1  LIG1       -0.0178
     15 C          -0.0265    4.0552   -0.2288 C.ar    1  LIG1        0.0623
     16 C          -1.2624    4.3044   -0.7493 C.ar    1  LIG1       -0.0061
     17 S          -2.2100    2.8847   -0.8000 S.2     1  LIG1       -0.0945
     18 H          -1.6448    5.2489   -1.1009 H       1  LIG1        0.0706
     19 C           1.4670    2.2020    0.7947 C.3     1  LIG1       -0.0374
     20 H           1.8159    2.9440    1.5133 H       1  LIG1        0.0278
     21 H           2.2318    2.0625    0.0291 H       1  LIG1        0.0278
     22 H           1.3027    1.2535    1.3045 H       1  LIG1        0.0278
     23 N           1.7908    5.8724    0.0891 N.1     1  LIG1       -0.1908
     24 C           0.9785    5.0753   -0.0601 C.1     1  LIG1        0.1000
@<TRIPOS>BOND
     1    11    12    3
     2     9     7    1
     3    18    16    1
     4    12     3    1
     5    17    16   ar
     6    17    13   ar
     7    16    15   ar
     8     3     2   ar
     9     3     4   ar
    10    15    24    1
    11    15    14   ar
    12     7     2    1
    13     7    10    1
    14     7     8    1
    15    13     4    1
    16    13    14   ar
    17    24    23    3
    18    21    19    1
    19     2     1   ar
    20     4     5   ar
    21    14    19    1
    22     1     5   ar
    23     1     6    1
    24    19    22    1
    25    19    20    1
