@<TRIPOS>MOLECULE
mol_data/opt/m06hf/geoms/mol2/5id5id-5id.out
 35 37 0 0 0
SMALL
GASTEIGER

@<TRIPOS>ATOM
      1 C          -1.5951   -1.7113    1.4806 C.ar    1  LIG1       -0.0196
      2 C          -0.8046   -1.8722    0.3872 C.ar    1  LIG1       -0.0255
      3 C          -0.4141   -0.5914   -0.1426 C.ar    1  LIG1        0.0699
      4 C          -0.9034    0.4805    0.5592 C.ar    1  LIG1        0.0438
      5 S          -1.8582   -0.0587    1.8846 S.2     1  LIG1       -0.0945
      6 H          -2.0423   -2.4886    2.0797 H       1  LIG1        0.0696
      7 C          -0.3865   -3.1863   -0.2285 C.3     1  LIG1       -0.0380
      8 H           0.7003   -3.2759   -0.2184 H       1  LIG1        0.0278
      9 H          -0.7258   -3.2371   -1.2640 H       1  LIG1        0.0278
     10 H          -0.8179   -4.0150    0.3298 H       1  LIG1        0.0278
     11 N           1.0291   -0.3475   -2.2775 N.1     1  LIG1       -0.1908
     12 C           0.3851   -0.4460   -1.3318 C.1     1  LIG1        0.1006
     13 C          -0.6944    1.9039    0.2689 C.ar    1  LIG1        0.0319
     14 C           0.4964    2.5443    0.0669 C.ar    1  LIG1       -0.0172
     15 C           0.2714    3.9318   -0.2390 C.ar    1  LIG1        0.0705
     16 C          -1.0469    4.3087   -0.2423 C.ar    1  LIG1        0.0444
     17 S          -2.0571    2.9673    0.1185 S.2     1  LIG1       -0.0856
     18 C           1.8761    1.9377    0.1512 C.3     1  LIG1       -0.0374
     19 H           2.5449    2.6273    0.6667 H       1  LIG1        0.0278
     20 H           2.2621    1.7516   -0.8522 H       1  LIG1        0.0278
     21 H           1.8385    0.9946    0.6948 H       1  LIG1        0.0278
     22 N           2.2043    5.5701   -0.7682 N.1     1  LIG1       -0.1908
     23 C           1.3409    4.8478   -0.5419 C.1     1  LIG1        0.1006
     24 C          -1.5909    5.6432   -0.5181 C.ar    1  LIG1        0.0313
     25 C          -1.2268    6.8251    0.0631 C.ar    1  LIG1       -0.0178
     26 C          -1.9770    7.9133   -0.5107 C.ar    1  LIG1        0.0623
     27 C          -2.8651    7.5325   -1.4738 C.ar    1  LIG1       -0.0061
     28 S          -2.8197    5.8457   -1.7284 S.2     1  LIG1       -0.0945
     29 H          -3.5327    8.1674   -2.0337 H       1  LIG1        0.0706
     30 C          -0.2174    7.0192    1.1686 C.3     1  LIG1       -0.0374
     31 H          -0.6107    7.7289    1.8969 H       1  LIG1        0.0278
     32 H           0.7135    7.4124    0.7568 H       1  LIG1        0.0278
     33 H          -0.0109    6.0705    1.6623 H       1  LIG1        0.0278
     34 N          -1.6846   10.3625    0.2778 N.1     1  LIG1       -0.1908
     35 C          -1.8179    9.2810   -0.0829 C.1     1  LIG1        0.1000
@<TRIPOS>BOND
     1    11    12    3
     2    29    27    1
     3    28    27   ar
     4    28    24   ar
     5    27    26   ar
     6    12     3    1
     7     9     7    1
     8    20    18    1
     9    22    23    3
    10    23    15    1
    11    24    16    1
    12    24    25   ar
    13    26    35    1
    14    26    25   ar
    15    16    15   ar
    16    16    17   ar
    17    15    14   ar
    18     7     8    1
    19     7    10    1
    20     7     2    1
    21     3     2   ar
    22     3     4   ar
    23    35    34    3
    24    25    30    1
    25    14    18    1
    26    14    13   ar
    27    17    13   ar
    28    18    19    1
    29    18    21    1
    30    13     4    1
    31     2     1   ar
    32     4     5   ar
    33    32    30    1
    34    30    33    1
    35    30    31    1
    36     1     5   ar
    37     1     6    1
