@<TRIPOS>MOLECULE
mol_data/opt/m06hf/geoms/mol2/5id5id.out
 24 25 0 0 0
SMALL
GASTEIGER

@<TRIPOS>ATOM
      1 C          -1.9598   -1.7355    0.7824 C.ar    1  LIG1       -0.0196
      2 C          -0.7791   -1.8321    0.1168 C.ar    1  LIG1       -0.0255
      3 C          -0.3082   -0.5250   -0.2638 C.ar    1  LIG1        0.0699
      4 C          -1.1254    0.5039    0.1291 C.ar    1  LIG1        0.0438
      5 S          -2.4932   -0.1095    0.9721 S.2     1  LIG1       -0.0945
      6 H          -2.5507   -2.5453    1.1800 H       1  LIG1        0.0696
      7 C          -0.0405   -3.1084   -0.2092 C.3     1  LIG1       -0.0380
      8 H           0.9526   -3.0922    0.2416 H       1  LIG1        0.0278
      9 H           0.0756   -3.2090   -1.2891 H       1  LIG1        0.0278
     10 H          -0.5916   -3.9661    0.1721 H       1  LIG1        0.0278
     11 N           1.8693   -0.1754   -1.6187 N.1     1  LIG1       -0.1908
     12 C           0.8986   -0.3190   -1.0221 C.1     1  LIG1        0.1006
     13 C          -0.9310    1.9403   -0.0990 C.ar    1  LIG1        0.0313
     14 C           0.1825    2.6837    0.1753 C.ar    1  LIG1       -0.0178
     15 C          -0.0249    4.0555   -0.2150 C.ar    1  LIG1        0.0623
     16 C          -1.2557    4.3051   -0.7476 C.ar    1  LIG1       -0.0061
     17 S          -2.2024    2.8852   -0.8094 S.2     1  LIG1       -0.0945
     18 H          -1.6347    5.2499   -1.1018 H       1  LIG1        0.0706
     19 C           1.4586    2.2014    0.8211 C.3     1  LIG1       -0.0374
     20 H           1.8002    2.9426    1.5440 H       1  LIG1        0.0278
     21 H           2.2311    2.0629    0.0630 H       1  LIG1        0.0278
     22 H           1.2895    1.2522    1.3281 H       1  LIG1        0.0278
     23 N           1.7888    5.8726    0.1231 N.1     1  LIG1       -0.1908
     24 C           0.9781    5.0755   -0.0352 C.1     1  LIG1        0.1000
@<TRIPOS>BOND
     1    11    12    3
     2     9     7    1
     3    18    16    1
     4    12     3    1
     5    17    16   ar
     6    17    13   ar
     7    16    15   ar
     8     3     2   ar
     9     3     4   ar
    10    15    24    1
    11    15    14   ar
    12     7     2    1
    13     7    10    1
    14     7     8    1
    15    13     4    1
    16    13    14   ar
    17    24    23    3
    18    21    19    1
    19     2     1   ar
    20     4     5   ar
    21    14    19    1
    22     1     5   ar
    23     1     6    1
    24    19    22    1
    25    19    20    1
