@<TRIPOS>MOLECULE
mol_data/opt/m06hf/geoms/mol2/5id5id-5id5id.out
 46 49 0 0 0
SMALL
GASTEIGER

@<TRIPOS>ATOM
      1 C          -1.1324   -1.5317    2.1427 C.ar    1  LIG1       -0.0196
      2 C          -0.8004   -1.8024    0.8529 C.ar    1  LIG1       -0.0255
      3 C          -0.5623   -0.5808    0.1279 C.ar    1  LIG1        0.0699
      4 C          -0.7066    0.5569    0.8804 C.ar    1  LIG1        0.0438
      5 S          -1.1449    0.1542    2.4948 S.2     1  LIG1       -0.0945
      6 H          -1.3721   -2.2435    2.9168 H       1  LIG1        0.0696
      7 C          -0.6968   -3.1722    0.2250 C.3     1  LIG1       -0.0380
      8 H           0.3164   -3.3388   -0.1425 H       1  LIG1        0.0278
      9 H          -1.3841   -3.2496   -0.6181 H       1  LIG1        0.0278
     10 H          -0.9416   -3.9391    0.9574 H       1  LIG1        0.0278
     11 N           0.0132   -0.5609   -2.3951 N.1     1  LIG1       -0.1908
     12 C          -0.2449   -0.5563   -1.2763 C.1     1  LIG1        0.1006
     13 C          -0.5367    1.9476    0.4438 C.ar    1  LIG1        0.0319
     14 C           0.5313    2.4885   -0.2174 C.ar    1  LIG1       -0.0172
     15 C           0.2988    3.8829   -0.4825 C.ar    1  LIG1        0.0705
     16 C          -0.8962    4.3622   -0.0096 C.ar    1  LIG1        0.0444
     17 S          -1.7847    3.1076    0.7593 S.2     1  LIG1       -0.0856
     18 C           1.8016    1.7795   -0.6191 C.3     1  LIG1       -0.0374
     19 H           2.6540    2.4360   -0.4450 H       1  LIG1        0.0278
     20 H           1.7642    1.5181   -1.6778 H       1  LIG1        0.0278
     21 H           1.9220    0.8673   -0.0361 H       1  LIG1        0.0278
     22 N           2.0039    5.3588   -1.7532 N.1     1  LIG1       -0.1908
     23 C           1.2384    4.7086   -1.1966 C.1     1  LIG1        0.1006
     24 C          -1.4067    5.7347   -0.1070 C.ar    1  LIG1        0.0319
     25 C          -0.7640    6.8843    0.2608 C.ar    1  LIG1       -0.0172
     26 C          -1.5860    8.0284   -0.0290 C.ar    1  LIG1        0.0705
     27 C          -2.8079    7.7290   -0.5755 C.ar    1  LIG1        0.0444
     28 S          -2.9828    6.0311   -0.7665 S.2     1  LIG1       -0.0856
     29 C           0.6012    6.9976    0.8944 C.3     1  LIG1       -0.0374
     30 H           0.5695    7.7363    1.6958 H       1  LIG1        0.0278
     31 H           1.3317    7.3142    0.1481 H       1  LIG1        0.0278
     32 H           0.9081    6.0350    1.3016 H       1  LIG1        0.0278
     33 N          -0.7982   10.4493    0.4343 N.1     1  LIG1       -0.1908
     34 C          -1.1543    9.3798    0.2173 C.1     1  LIG1        0.1006
     35 C          -3.8650    8.6711   -0.9619 C.ar    1  LIG1        0.0313
     36 C          -4.4219    9.6507   -0.1880 C.ar    1  LIG1       -0.0178
     37 C          -5.4106   10.3781   -0.9425 C.ar    1  LIG1        0.0623
     38 C          -5.5710    9.9367   -2.2232 C.ar    1  LIG1       -0.0061
     39 S          -4.5260    8.6313   -2.5662 S.2     1  LIG1       -0.0945
     40 H          -6.2504   10.3217   -2.9665 H       1  LIG1        0.0706
     41 C          -4.1069    9.9545    1.2568 C.3     1  LIG1       -0.0374
     42 H          -5.0336   10.1517    1.7958 H       1  LIG1        0.0278
     43 H          -3.4650   10.8346    1.3192 H       1  LIG1        0.0278
     44 H          -3.5928    9.1116    1.7165 H       1  LIG1        0.0278
     45 N          -6.7758   12.3196    0.0916 N.1     1  LIG1       -0.1908
     46 C          -6.1744   11.4637   -0.3801 C.1     1  LIG1        0.1000
@<TRIPOS>BOND
     1    40    38    1
     2    39    38   ar
     3    39    35   ar
     4    11    12    3
     5    38    37   ar
     6    22    23    3
     7    20    18    1
     8    12     3    1
     9    23    15    1
    10    35    27    1
    11    35    36   ar
    12    37    46    1
    13    37    36   ar
    14    28    27   ar
    15    28    24   ar
    16    18    19    1
    17    18    14    1
    18    18    21    1
    19     9     7    1
    20    27    26   ar
    21    15    14   ar
    22    15    16   ar
    23    46    45    3
    24    14    13   ar
    25    36    41    1
    26     8     7    1
    27    24    16    1
    28    24    25   ar
    29    26    34    1
    30    26    25   ar
    31    16    17   ar
    32     3     2   ar
    33     3     4   ar
    34    31    29    1
    35    34    33    3
    36     7     2    1
    37     7    10    1
    38    25    29    1
    39    13    17   ar
    40    13     4    1
    41     2     1   ar
    42     4     5   ar
    43    29    32    1
    44    29    30    1
    45    41    43    1
    46    41    44    1
    47    41    42    1
    48     1     5   ar
    49     1     6    1
