@<TRIPOS>MOLECULE
mol_data/opt/m06hf/geoms/mol2/5id5id5id-5id.out
 46 49 0 0 0
SMALL
GASTEIGER

@<TRIPOS>ATOM
      1 C          -1.1824   -1.5290    2.1365 C.ar    1  LIG1       -0.0196
      2 C          -0.8276   -1.8023    0.8534 C.ar    1  LIG1       -0.0255
      3 C          -0.5742   -0.5822    0.1310 C.ar    1  LIG1        0.0699
      4 C          -0.7300    0.5568    0.8791 C.ar    1  LIG1        0.0438
      5 S          -1.1982    0.1574    2.4858 S.2     1  LIG1       -0.0945
      6 H          -1.4375   -2.2392    2.9072 H       1  LIG1        0.0696
      7 C          -0.7152   -3.1732    0.2294 C.3     1  LIG1       -0.0380
      8 H           0.3042   -3.3422   -0.1194 H       1  LIG1        0.0278
      9 H          -1.3873   -3.2506   -0.6259 H       1  LIG1        0.0278
     10 H          -0.9746   -3.9386    0.9584 H       1  LIG1        0.0278
     11 N           0.0470   -0.5672   -2.3813 N.1     1  LIG1       -0.1908
     12 C          -0.2314   -0.5604   -1.2673 C.1     1  LIG1        0.1006
     13 C          -0.5496    1.9466    0.4435 C.ar    1  LIG1        0.0319
     14 C           0.5311    2.4846   -0.1990 C.ar    1  LIG1       -0.0172
     15 C           0.3060    3.8790   -0.4703 C.ar    1  LIG1        0.0705
     16 C          -0.8965    4.3612   -0.0198 C.ar    1  LIG1        0.0444
     17 S          -1.8010    3.1094    0.7346 S.2     1  LIG1       -0.0856
     18 C           1.8072    1.7727   -0.5766 C.3     1  LIG1       -0.0374
     19 H           2.6575    2.4279   -0.3880 H       1  LIG1        0.0278
     20 H           1.7885    1.5098   -1.6354 H       1  LIG1        0.0278
     21 H           1.9153    0.8611    0.0098 H       1  LIG1        0.0278
     22 N           2.0365    5.3498   -1.7122 N.1     1  LIG1       -0.1908
     23 C           1.2599    4.7019   -1.1686 C.1     1  LIG1        0.1006
     24 C          -1.4026    5.7345   -0.1286 C.ar    1  LIG1        0.0319
     25 C          -0.7645    6.8835    0.2491 C.ar    1  LIG1       -0.0172
     26 C          -1.5790    8.0286   -0.0572 C.ar    1  LIG1        0.0705
     27 C          -2.7914    7.7306   -0.6253 C.ar    1  LIG1        0.0444
     28 S          -2.9659    6.0327   -0.8170 S.2     1  LIG1       -0.0856
     29 C           0.5892    6.9952    0.9072 C.3     1  LIG1       -0.0374
     30 H           0.5443    7.7352    1.7068 H       1  LIG1        0.0278
     31 H           1.3336    7.3094    0.1738 H       1  LIG1        0.0278
     32 H           0.8869    6.0327    1.3213 H       1  LIG1        0.0278
     33 N          -0.7953   10.4488    0.4168 N.1     1  LIG1       -0.1908
     34 C          -1.1494    9.3796    0.1949 C.1     1  LIG1        0.1006
     35 C          -3.8395    8.6740   -1.0322 C.ar    1  LIG1        0.0313
     36 C          -4.4085    9.6558   -0.2699 C.ar    1  LIG1       -0.0178
     37 C          -5.3822   10.3838   -1.0433 C.ar    1  LIG1        0.0623
     38 C          -5.5201    9.9408   -2.3260 C.ar    1  LIG1       -0.0061
     39 S          -4.4714    8.6330   -2.6481 S.2     1  LIG1       -0.0945
     40 H          -6.1853   10.3259   -3.0821 H       1  LIG1        0.0706
     41 C          -4.1193    9.9612    1.1798 C.3     1  LIG1       -0.0374
     42 H          -5.0551   10.1609    1.7018 H       1  LIG1        0.0278
     43 H          -3.4770   10.8403    1.2526 H       1  LIG1        0.0278
     44 H          -3.6150    9.1180    1.6501 H       1  LIG1        0.0278
     45 N          -6.7623   12.3294   -0.0370 N.1     1  LIG1       -0.1908
     46 C          -6.1539   11.4717   -0.4964 C.1     1  LIG1        0.1000
@<TRIPOS>BOND
     1    40    38    1
     2    39    38   ar
     3    39    35   ar
     4    11    12    3
     5    38    37   ar
     6    22    23    3
     7    20    18    1
     8    12     3    1
     9    23    15    1
    10    37    46    1
    11    37    36   ar
    12    35    27    1
    13    35    36   ar
    14    28    27   ar
    15    28    24   ar
    16     9     7    1
    17    27    26   ar
    18    18    19    1
    19    18    14    1
    20    18    21    1
    21    46    45    3
    22    15    14   ar
    23    15    16   ar
    24    36    41    1
    25    14    13   ar
    26    24    16    1
    27    24    25   ar
    28     8     7    1
    29    26    34    1
    30    26    25   ar
    31    16    17   ar
    32     3     2   ar
    33     3     4   ar
    34    31    29    1
    35    34    33    3
    36     7     2    1
    37     7    10    1
    38    25    29    1
    39    13    17   ar
    40    13     4    1
    41     2     1   ar
    42     4     5   ar
    43    29    32    1
    44    29    30    1
    45    41    43    1
    46    41    44    1
    47    41    42    1
    48     1     5   ar
    49     1     6    1
