@<TRIPOS>MOLECULE
mol_data/opt/m06hf/geoms/mol2/5id5id-5id5id-.out
 46 49 0 0 0
SMALL
GASTEIGER

@<TRIPOS>ATOM
      1 C          -1.1466   -1.5290    2.1477 C.ar    1  LIG1       -0.0196
      2 C          -0.8128   -1.8022    0.8589 C.ar    1  LIG1       -0.0255
      3 C          -0.5715   -0.5821    0.1325 C.ar    1  LIG1        0.0699
      4 C          -0.7151    0.5569    0.8830 C.ar    1  LIG1        0.0438
      5 S          -1.1569    0.1574    2.4973 S.2     1  LIG1       -0.0945
      6 H          -1.3889   -2.2393    2.9224 H       1  LIG1        0.0696
      7 C          -0.7105   -3.1731    0.2332 C.3     1  LIG1       -0.0380
      8 H           0.3031   -3.3420   -0.1323 H       1  LIG1        0.0278
      9 H          -1.3965   -3.2506   -0.6110 H       1  LIG1        0.0278
     10 H          -0.9578   -3.9385    0.9663 H       1  LIG1        0.0278
     11 N           0.0085   -0.5669   -2.3896 N.1     1  LIG1       -0.1908
     12 C          -0.2516   -0.5602   -1.2712 C.1     1  LIG1        0.1006
     13 C          -0.5421    1.9467    0.4447 C.ar    1  LIG1        0.0319
     14 C           0.5280    2.4848   -0.2155 C.ar    1  LIG1       -0.0172
     15 C           0.2983    3.8793   -0.4830 C.ar    1  LIG1        0.0705
     16 C          -0.8968    4.3613   -0.0129 C.ar    1  LIG1        0.0444
     17 S          -1.7887    3.1093    0.7562 S.2     1  LIG1       -0.0856
     18 C           1.7978    1.7731   -0.6139 C.3     1  LIG1       -0.0374
     19 H           2.6510    2.4284   -0.4393 H       1  LIG1        0.0278
     20 H           1.7617    1.5102   -1.6723 H       1  LIG1        0.0278
     21 H           1.9156    0.8615   -0.0294 H       1  LIG1        0.0278
     22 N           2.0081    5.3503   -1.7530 N.1     1  LIG1       -0.1908
     23 C           1.2405    4.7023   -1.1968 C.1     1  LIG1        0.1006
     24 C          -1.4048    5.7345   -0.1133 C.ar    1  LIG1        0.0319
     25 C          -0.7607    6.8835    0.2539 C.ar    1  LIG1       -0.0172
     26 C          -1.5802    8.0286   -0.0391 C.ar    1  LIG1        0.0705
     27 C          -2.8018    7.7304   -0.5872 C.ar    1  LIG1        0.0444
     28 S          -2.9792    6.0326   -0.7760 S.2     1  LIG1       -0.0856
     29 C           0.6036    6.9954    0.8897 C.3     1  LIG1       -0.0374
     30 H           0.5717    7.7354    1.6899 H       1  LIG1        0.0278
     31 H           1.3359    7.3097    0.1442 H       1  LIG1        0.0278
     32 H           0.9081    6.0329    1.2988 H       1  LIG1        0.0278
     33 N          -0.7891   10.4488    0.4221 N.1     1  LIG1       -0.1908
     34 C          -1.1467    9.3796    0.2060 C.1     1  LIG1        0.1006
     35 C          -3.8565    8.6738   -0.9769 C.ar    1  LIG1        0.0313
     36 C          -4.4131    9.6555   -0.2053 C.ar    1  LIG1       -0.0178
     37 C          -5.3993   10.3834   -0.9627 C.ar    1  LIG1        0.0623
     38 C          -5.5582    9.9403   -2.2430 C.ar    1  LIG1       -0.0061
     39 S          -4.5148    8.6327   -2.5822 S.2     1  LIG1       -0.0945
     40 H          -6.2357   10.3254   -2.9881 H       1  LIG1        0.0706
     41 C          -4.1001    9.9608    1.2395 C.3     1  LIG1       -0.0374
     42 H          -5.0274   10.1604    1.7766 H       1  LIG1        0.0278
     43 H          -3.4569   10.8400    1.3017 H       1  LIG1        0.0278
     44 H          -3.5882    9.1178    1.7014 H       1  LIG1        0.0278
     45 N          -6.7630   12.3288    0.0661 N.1     1  LIG1       -0.1908
     46 C          -6.1622   11.4711   -0.4032 C.1     1  LIG1        0.1000
@<TRIPOS>BOND
     1    40    38    1
     2    39    38   ar
     3    39    35   ar
     4    11    12    3
     5    38    37   ar
     6    22    23    3
     7    20    18    1
     8    12     3    1
     9    23    15    1
    10    35    27    1
    11    35    36   ar
    12    37    46    1
    13    37    36   ar
    14    28    27   ar
    15    28    24   ar
    16    18    19    1
    17    18    14    1
    18    18    21    1
    19     9     7    1
    20    27    26   ar
    21    15    14   ar
    22    15    16   ar
    23    46    45    3
    24    14    13   ar
    25    36    41    1
    26     8     7    1
    27    24    16    1
    28    24    25   ar
    29    26    34    1
    30    26    25   ar
    31    16    17   ar
    32     3     2   ar
    33     3     4   ar
    34    31    29    1
    35    34    33    3
    36     7     2    1
    37     7    10    1
    38    25    29    1
    39    13    17   ar
    40    13     4    1
    41     2     1   ar
    42     4     5   ar
    43    29    32    1
    44    29    30    1
    45    41    43    1
    46    41    44    1
    47    41    42    1
    48     1     5   ar
    49     1     6    1
