@<TRIPOS>MOLECULE
mol_data/opt/m06hf/geoms/mol2/5id5id5id5id.out
 46 49 0 0 0
SMALL
GASTEIGER

@<TRIPOS>ATOM
      1 C          -1.1529   -1.5268    2.1422 C.ar    1  LIG1       -0.0196
      2 C          -0.8095   -1.8006    0.8561 C.ar    1  LIG1       -0.0255
      3 C          -0.5647   -0.5807    0.1304 C.ar    1  LIG1        0.0699
      4 C          -0.7154    0.5587    0.8789 C.ar    1  LIG1        0.0438
      5 S          -1.1681    0.1599    2.4903 S.2     1  LIG1       -0.0945
      6 H          -1.3997   -2.2368    2.9158 H       1  LIG1        0.0696
      7 C          -0.7007   -3.1718    0.2322 C.3     1  LIG1       -0.0380
      8 H           0.3157   -3.3395   -0.1259 H       1  LIG1        0.0278
      9 H          -1.3805   -3.2510   -0.6167 H       1  LIG1        0.0278
     10 H          -0.9521   -3.9370    0.9642 H       1  LIG1        0.0278
     11 N           0.0334   -0.5668   -2.3875 N.1     1  LIG1       -0.1908
     12 C          -0.2347   -0.5595   -1.2710 C.1     1  LIG1        0.1006
     13 C          -0.5412    1.9484    0.4406 C.ar    1  LIG1        0.0319
     14 C           0.5328    2.4875   -0.2123 C.ar    1  LIG1       -0.0172
     15 C           0.3030    3.8814   -0.4826 C.ar    1  LIG1        0.0705
     16 C          -0.8961    4.3620   -0.0215 C.ar    1  LIG1        0.0444
     17 S          -1.7916    3.1094    0.7423 S.2     1  LIG1       -0.0856
     18 C           1.8064    1.7773   -0.6010 C.3     1  LIG1       -0.0374
     19 H           2.6574    2.4340   -0.4208 H       1  LIG1        0.0278
     20 H           1.7784    1.5135   -1.6594 H       1  LIG1        0.0278
     21 H           1.9214    0.8664   -0.0148 H       1  LIG1        0.0278
     22 N           2.0197    5.3539   -1.7415 N.1     1  LIG1       -0.1908
     23 C           1.2491    4.7052   -1.1903 C.1     1  LIG1        0.1006
     24 C          -1.4053    5.7345   -0.1267 C.ar    1  LIG1        0.0319
     25 C          -0.7656    6.8847    0.2442 C.ar    1  LIG1       -0.0172
     26 C          -1.5846    8.0283   -0.0556 C.ar    1  LIG1        0.0705
     27 C          -2.8018    7.7280   -0.6122 C.ar    1  LIG1        0.0444
     28 S          -2.9754    6.0297   -0.8009 S.2     1  LIG1       -0.0856
     29 C           0.5939    6.9991    0.8897 C.3     1  LIG1       -0.0374
     30 H           0.5553    7.7397    1.6890 H       1  LIG1        0.0278
     31 H           1.3311    7.3139    0.1492 H       1  LIG1        0.0278
     32 H           0.8970    6.0374    1.3018 H       1  LIG1        0.0278
     33 N          -0.8004   10.4501    0.4092 N.1     1  LIG1       -0.1908
     34 C          -1.1548    9.3802    0.1915 C.1     1  LIG1        0.1006
     35 C          -3.8551    8.6695   -1.0102 C.ar    1  LIG1        0.0313
     36 C          -4.4186    9.6510   -0.2435 C.ar    1  LIG1       -0.0178
     37 C          -5.4004   10.3768   -1.0085 C.ar    1  LIG1        0.0623
     38 C          -5.5495    9.9325   -2.2895 C.ar    1  LIG1       -0.0061
     39 S          -4.5018    8.6261   -2.6202 S.2     1  LIG1       -0.0945
     40 H          -6.2222   10.3160   -3.0398 H       1  LIG1        0.0706
     41 C          -4.1165    9.9580    1.2033 C.3     1  LIG1       -0.0374
     42 H          -5.0478   10.1566    1.7336 H       1  LIG1        0.0278
     43 H          -3.4750   10.8381    1.2694 H       1  LIG1        0.0278
     44 H          -3.6066    9.1160    1.6695 H       1  LIG1        0.0278
     45 N          -6.7743   12.3210    0.0089 N.1     1  LIG1       -0.1908
     46 C          -6.1688   11.4639   -0.4554 C.1     1  LIG1        0.1000
@<TRIPOS>BOND
     1    40    38    1
     2    39    38   ar
     3    39    35   ar
     4    11    12    3
     5    38    37   ar
     6    22    23    3
     7    20    18    1
     8    12     3    1
     9    23    15    1
    10    35    27    1
    11    35    36   ar
    12    37    46    1
    13    37    36   ar
    14    28    27   ar
    15    28    24   ar
    16     9     7    1
    17    27    26   ar
    18    18    19    1
    19    18    14    1
    20    18    21    1
    21    15    14   ar
    22    15    16   ar
    23    46    45    3
    24    36    41    1
    25    14    13   ar
    26    24    16    1
    27    24    25   ar
    28     8     7    1
    29    26    34    1
    30    26    25   ar
    31    16    17   ar
    32     3     2   ar
    33     3     4   ar
    34    31    29    1
    35    34    33    3
    36     7     2    1
    37     7    10    1
    38    25    29    1
    39    13    17   ar
    40    13     4    1
    41     2     1   ar
    42     4     5   ar
    43    29    32    1
    44    29    30    1
    45    41    43    1
    46    41    44    1
    47    41    42    1
    48     1     5   ar
    49     1     6    1
