@<TRIPOS>MOLECULE
mol_data/opt/m06hf/geoms/mol2/5id5id5id-5id-.out
 46 49 0 0 0
SMALL
GASTEIGER

@<TRIPOS>ATOM
      1 C          -1.1471   -1.5233    2.1434 C.ar    1  LIG1       -0.0196
      2 C          -0.8142   -1.8001    0.8552 C.ar    1  LIG1       -0.0255
      3 C          -0.5729   -0.5821    0.1253 C.ar    1  LIG1        0.0699
      4 C          -0.7157    0.5591    0.8729 C.ar    1  LIG1        0.0438
      5 S          -1.1566    0.1640    2.4884 S.2     1  LIG1       -0.0945
      6 H          -1.3892   -2.2314    2.9202 H       1  LIG1        0.0696
      7 C          -0.7127   -3.1727    0.2331 C.3     1  LIG1       -0.0380
      8 H           0.3006   -3.3429   -0.1326 H       1  LIG1        0.0278
      9 H          -1.3992   -3.2522   -0.6104 H       1  LIG1        0.0278
     10 H          -0.9598   -3.9361    0.9684 H       1  LIG1        0.0278
     11 N           0.0056   -0.5739   -2.3972 N.1     1  LIG1       -0.1908
     12 C          -0.2538   -0.5640   -1.2787 C.1     1  LIG1        0.1006
     13 C          -0.5425    1.9476    0.4306 C.ar    1  LIG1        0.0319
     14 C           0.5273    2.4836   -0.2317 C.ar    1  LIG1       -0.0172
     15 C           0.2979    3.8774   -0.5028 C.ar    1  LIG1        0.0705
     16 C          -0.8967    4.3610   -0.0333 C.ar    1  LIG1        0.0444
     17 S          -1.7885    3.1114    0.7398 S.2     1  LIG1       -0.0856
     18 C           1.7966    1.7703   -0.6289 C.3     1  LIG1       -0.0374
     19 H           2.6502    2.4259   -0.4566 H       1  LIG1        0.0278
     20 H           1.7599    1.5046   -1.6866 H       1  LIG1        0.0278
     21 H           1.9145    0.8604   -0.0420 H       1  LIG1        0.0278
     22 N           2.0074    5.3444   -1.7778 N.1     1  LIG1       -0.1908
     23 C           1.2400    4.6981   -1.2194 C.1     1  LIG1        0.1006
     24 C          -1.4043    5.7341   -0.1371 C.ar    1  LIG1        0.0319
     25 C          -0.7596    6.8840    0.2266 C.ar    1  LIG1       -0.0172
     26 C          -1.5790    8.0285   -0.0689 C.ar    1  LIG1        0.0705
     27 C          -2.8009    7.7292   -0.6155 C.ar    1  LIG1        0.0444
     28 S          -2.9790    6.0309   -0.7996 S.2     1  LIG1       -0.0856
     29 C           0.6051    6.9971    0.8614 C.3     1  LIG1       -0.0374
     30 H           0.5739    7.7393    1.6596 H       1  LIG1        0.0278
     31 H           1.3370    7.3092    0.1146 H       1  LIG1        0.0278
     32 H           0.9096    6.0356    1.2729 H       1  LIG1        0.0278
     33 N          -0.7868   10.4497    0.3852 N.1     1  LIG1       -0.1908
     34 C          -1.1448    9.3800    0.1723 C.1     1  LIG1        0.1006
     35 C          -3.8556    8.6719   -1.0071 C.ar    1  LIG1        0.0313
     36 C          -4.4114    9.6558   -0.2378 C.ar    1  LIG1       -0.0178
     37 C          -5.3979   10.3820   -0.9965 C.ar    1  LIG1        0.0623
     38 C          -5.5577    9.9355   -2.2755 C.ar    1  LIG1       -0.0061
     39 S          -4.5149    8.6267   -2.6119 S.2     1  LIG1       -0.0945
     40 H          -6.2355   10.3188   -3.0212 H       1  LIG1        0.0706
     41 C          -4.0975    9.9650    1.2060 C.3     1  LIG1       -0.0374
     42 H          -5.0243   10.1663    1.7432 H       1  LIG1        0.0278
     43 H          -3.4539   10.8441    1.2655 H       1  LIG1        0.0278
     44 H          -3.5855    9.1230    1.6698 H       1  LIG1        0.0278
     45 N          -6.7603   12.3306    0.0278 N.1     1  LIG1       -0.1908
     46 C          -6.1600   11.4715   -0.4395 C.1     1  LIG1        0.1000
@<TRIPOS>BOND
     1    40    38    1
     2    39    38   ar
     3    39    35   ar
     4    11    12    3
     5    38    37   ar
     6    22    23    3
     7    20    18    1
     8    12     3    1
     9    23    15    1
    10    35    27    1
    11    35    36   ar
    12    37    46    1
    13    37    36   ar
    14    28    27   ar
    15    28    24   ar
    16    18    19    1
    17    18    14    1
    18    18    21    1
    19    27    26   ar
    20     9     7    1
    21    15    14   ar
    22    15    16   ar
    23    46    45    3
    24    36    41    1
    25    14    13   ar
    26    24    16    1
    27    24    25   ar
    28     8     7    1
    29    26    34    1
    30    26    25   ar
    31    16    17   ar
    32    31    29    1
    33     3     2   ar
    34     3     4   ar
    35    34    33    3
    36    25    29    1
    37     7     2    1
    38     7    10    1
    39    13    17   ar
    40    13     4    1
    41     2     1   ar
    42    29    32    1
    43    29    30    1
    44     4     5   ar
    45    41    43    1
    46    41    44    1
    47    41    42    1
    48     1     5   ar
    49     1     6    1
