@<TRIPOS>MOLECULE
mol_data/opt/m06hf/geoms/mol2/5id5id5id.out
 35 37 0 0 0
SMALL
GASTEIGER

@<TRIPOS>ATOM
      1 C          -1.6073   -1.7084    1.4761 C.ar    1  LIG1       -0.0196
      2 C          -0.8171   -1.8713    0.3828 C.ar    1  LIG1       -0.0255
      3 C          -0.4232   -0.5915   -0.1470 C.ar    1  LIG1        0.0699
      4 C          -0.9098    0.4816    0.5548 C.ar    1  LIG1        0.0438
      5 S          -1.8661   -0.0551    1.8801 S.2     1  LIG1       -0.0945
      6 H          -2.0566   -2.4845    2.0752 H       1  LIG1        0.0696
      7 C          -0.4024   -3.1865   -0.2329 C.3     1  LIG1       -0.0380
      8 H           0.6841   -3.2789   -0.2227 H       1  LIG1        0.0278
      9 H          -0.7417   -3.2364   -1.2684 H       1  LIG1        0.0278
     10 H          -0.8360   -4.0141    0.3253 H       1  LIG1        0.0278
     11 N           1.0208   -0.3514   -2.2817 N.1     1  LIG1       -0.1908
     12 C           0.3765   -0.4482   -1.3360 C.1     1  LIG1        0.1006
     13 C          -0.6970    1.9044    0.2646 C.ar    1  LIG1        0.0319
     14 C           0.4955    2.5418    0.0627 C.ar    1  LIG1       -0.0172
     15 C           0.2741    3.9299   -0.2432 C.ar    1  LIG1        0.0705
     16 C          -1.0433    4.3102   -0.2466 C.ar    1  LIG1        0.0444
     17 S          -2.0569    2.9715    0.1141 S.2     1  LIG1       -0.0856
     18 C           1.8736    1.9316    0.1472 C.3     1  LIG1       -0.0374
     19 H           2.5441    2.6194    0.6628 H       1  LIG1        0.0278
     20 H           2.2592    1.7445   -0.8562 H       1  LIG1        0.0278
     21 H           1.8334    0.9885    0.6907 H       1  LIG1        0.0278
     22 N           2.2113    5.5631   -0.7721 N.1     1  LIG1       -0.1908
     23 C           1.3460    4.8431   -0.5459 C.1     1  LIG1        0.1006
     24 C          -1.5837    5.6462   -0.5224 C.ar    1  LIG1        0.0313
     25 C          -1.2165    6.8271    0.0589 C.ar    1  LIG1       -0.0178
     26 C          -1.9638    7.9172   -0.5150 C.ar    1  LIG1        0.0623
     27 C          -2.8529    7.5388   -1.4782 C.ar    1  LIG1       -0.0061
     28 S          -2.8119    5.8518   -1.7328 S.2     1  LIG1       -0.0945
     29 H          -3.5187    8.1755   -2.0381 H       1  LIG1        0.0706
     30 C          -0.2068    7.0186    1.1645 C.3     1  LIG1       -0.0374
     31 H          -0.5984    7.7292    1.8928 H       1  LIG1        0.0278
     32 H           0.7251    7.4093    0.7529 H       1  LIG1        0.0278
     33 H          -0.0028    6.0692    1.6581 H       1  LIG1        0.0278
     34 N          -1.6652   10.3656    0.2736 N.1     1  LIG1       -0.1908
     35 C          -1.8012    9.2845   -0.0871 C.1     1  LIG1        0.1000
@<TRIPOS>BOND
     1    11    12    3
     2    29    27    1
     3    28    27   ar
     4    28    24   ar
     5    27    26   ar
     6    12     3    1
     7     9     7    1
     8    20    18    1
     9    22    23    3
    10    23    15    1
    11    24    16    1
    12    24    25   ar
    13    26    35    1
    14    26    25   ar
    15    16    15   ar
    16    16    17   ar
    17    15    14   ar
    18     7     8    1
    19     7    10    1
    20     7     2    1
    21     3     2   ar
    22     3     4   ar
    23    35    34    3
    24    25    30    1
    25    14    18    1
    26    14    13   ar
    27    17    13   ar
    28    18    19    1
    29    18    21    1
    30    13     4    1
    31     2     1   ar
    32     4     5   ar
    33    32    30    1
    34    30    33    1
    35    30    31    1
    36     1     5   ar
    37     1     6    1
