@<TRIPOS>MOLECULE
mol_data/opt/m06hf/geoms/mol2/5id5id-5id-.out
 35 37 0 0 0
SMALL
GASTEIGER

@<TRIPOS>ATOM
      1 C          -1.5943   -1.7176    1.4677 C.ar    1  LIG1       -0.0196
      2 C          -0.8047   -1.8738    0.3730 C.ar    1  LIG1       -0.0255
      3 C          -0.4146   -0.5907   -0.1516 C.ar    1  LIG1        0.0699
      4 C          -0.9033    0.4781    0.5553 C.ar    1  LIG1        0.0438
      5 S          -1.8569   -0.0668    1.8791 S.2     1  LIG1       -0.0945
      6 H          -2.0412   -2.4974    2.0638 H       1  LIG1        0.0696
      7 C          -0.3873   -3.1853   -0.2488 C.3     1  LIG1       -0.0380
      8 H           0.6994   -3.2750   -0.2399 H       1  LIG1        0.0278
      9 H          -0.7274   -3.2316   -1.2842 H       1  LIG1        0.0278
     10 H          -0.8183   -4.0164    0.3063 H       1  LIG1        0.0278
     11 N           1.0269   -0.3378   -2.2866 N.1     1  LIG1       -0.1908
     12 C           0.3837   -0.4403   -1.3408 C.1     1  LIG1        0.1006
     13 C          -0.6943    1.9027    0.2710 C.ar    1  LIG1        0.0319
     14 C           0.4964    2.5439    0.0708 C.ar    1  LIG1       -0.0172
     15 C           0.2713    3.9328   -0.2289 C.ar    1  LIG1        0.0705
     16 C          -1.0471    4.3097   -0.2295 C.ar    1  LIG1        0.0444
     17 S          -2.0570    2.9670    0.1263 S.2     1  LIG1       -0.0856
     18 C           1.8761    1.9368    0.1513 C.3     1  LIG1       -0.0374
     19 H           2.5453    2.6241    0.6693 H       1  LIG1        0.0278
     20 H           2.2612    1.7550   -0.8532 H       1  LIG1        0.0278
     21 H           1.8388    0.9914    0.6908 H       1  LIG1        0.0278
     22 N           2.2039    5.5731   -0.7525 N.1     1  LIG1       -0.1908
     23 C           1.3405    4.8499   -0.5286 C.1     1  LIG1        0.1006
     24 C          -1.5912    5.6455   -0.4990 C.ar    1  LIG1        0.0313
     25 C          -1.2264    6.8248    0.0871 C.ar    1  LIG1       -0.0178
     26 C          -1.9770    7.9156   -0.4814 C.ar    1  LIG1        0.0623
     27 C          -2.8660    7.5391   -1.4454 C.ar    1  LIG1       -0.0061
     28 S          -2.8209    5.8533   -1.7074 S.2     1  LIG1       -0.0945
     29 H          -3.5339    8.1765   -2.0020 H       1  LIG1        0.0706
     30 C          -0.2161    7.0141    1.1926 C.3     1  LIG1       -0.0374
     31 H          -0.6088    7.7206    1.9242 H       1  LIG1        0.0278
     32 H           0.7145    7.4090    0.7817 H       1  LIG1        0.0278
     33 H          -0.0092    6.0631    1.6818 H       1  LIG1        0.0278
     34 N          -1.6838   10.3613    0.3175 N.1     1  LIG1       -0.1908
     35 C          -1.8174    9.2814   -0.0478 C.1     1  LIG1        0.1000
@<TRIPOS>BOND
     1    11    12    3
     2    29    27    1
     3    28    27   ar
     4    28    24   ar
     5    27    26   ar
     6    12     3    1
     7     9     7    1
     8    20    18    1
     9    22    23    3
    10    23    15    1
    11    24    16    1
    12    24    25   ar
    13    26    35    1
    14    26    25   ar
    15     7     8    1
    16     7    10    1
    17     7     2    1
    18    16    15   ar
    19    16    17   ar
    20    15    14   ar
    21     3     2   ar
    22     3     4   ar
    23    35    34    3
    24    14    18    1
    25    14    13   ar
    26    25    30    1
    27    17    13   ar
    28    18    19    1
    29    18    21    1
    30    13     4    1
    31     2     1   ar
    32     4     5   ar
    33    32    30    1
    34    30    33    1
    35    30    31    1
    36     1     5   ar
    37     1     6    1
