@<TRIPOS>MOLECULE
mol_data/opt/m06hf/geoms/mol2/5ie.out
 14 14 0 0 0
SMALL
GASTEIGER

@<TRIPOS>ATOM
      1 C          -2.1412   -1.6643    0.0648 C.ar    1  LIG1       -0.0202
      2 C          -0.7838   -1.6709    0.0262 C.ar    1  LIG1       -0.0281
      3 C          -0.2581   -0.3233   -0.0156 C.ar    1  LIG1        0.0346
      4 C          -1.2353    0.6294   -0.0067 C.ar    1  LIG1       -0.0087
      5 S          -2.7976   -0.0706    0.0518 S.2     1  LIG1       -0.1036
      6 H          -2.7979   -2.5190    0.1005 H       1  LIG1        0.0696
      7 H          -1.1008    1.6983   -0.0319 H       1  LIG1        0.0706
      8 C           0.1000   -2.8948    0.0253 C.3     1  LIG1       -0.0380
      9 H           0.7664   -2.8728    0.8886 H       1  LIG1        0.0278
     10 H           0.7138   -2.9096   -0.8764 H       1  LIG1        0.0278
     11 H          -0.5043   -3.7999    0.0621 H       1  LIG1        0.0278
     12 C           1.1503   -0.0342   -0.0616 C.1     1  LIG1       -0.0689
     13 C           2.3332    0.1773   -0.0990 C.1     1  LIG1       -0.1139
     14 H           3.3799    0.3727   -0.1333 H       1  LIG1        0.1232
@<TRIPOS>BOND
     1    10     8    1
     2    14    13    1
     3    13    12    3
     4    12     3    1
     5     7     4    1
     6     3     4   ar
     7     3     2   ar
     8     4     5   ar
     9     8     2    1
    10     8    11    1
    11     8     9    1
    12     2     1   ar
    13     5     1   ar
    14     1     6    1
