@<TRIPOS>MOLECULE
mol_data/opt/m06hf/geoms/mol2/5ie5ie-5ie.out
 38 40 0 0 0
SMALL
GASTEIGER

@<TRIPOS>ATOM
      1 C          -1.6823   -1.6365    1.5480 C.ar    1  LIG1       -0.0196
      2 C          -0.7945   -1.8335    0.5400 C.ar    1  LIG1       -0.0274
      3 C          -0.3349   -0.5756   -0.0027 C.ar    1  LIG1        0.0428
      4 C          -0.8836    0.5162    0.6212 C.ar    1  LIG1        0.0418
      5 S          -1.9689    0.0308    1.8701 S.2     1  LIG1       -0.0946
      6 H          -2.1902   -2.3925    2.1257 H       1  LIG1        0.0696
      7 C          -0.3353   -3.1693    0.0084 C.3     1  LIG1       -0.0380
      8 H           0.7474   -3.2580    0.1061 H       1  LIG1        0.0278
      9 H          -0.5888   -3.2543   -1.0493 H       1  LIG1        0.0278
     10 H          -0.8120   -3.9796    0.5576 H       1  LIG1        0.0278
     11 C           0.5732   -0.4925   -1.1126 C.1     1  LIG1       -0.0682
     12 C           1.3317   -0.4589   -2.0450 C.1     1  LIG1       -0.1139
     13 H           1.9966   -0.4208   -2.8768 H       1  LIG1        0.1232
     14 C          -0.6384    1.9318    0.3198 C.ar    1  LIG1        0.0318
     15 C           0.5659    2.5728    0.2679 C.ar    1  LIG1       -0.0191
     16 C           0.4030    3.9585   -0.1010 C.ar    1  LIG1        0.0435
     17 C          -0.9058    4.3246   -0.2926 C.ar    1  LIG1        0.0424
     18 S          -1.9630    2.9885   -0.0452 S.2     1  LIG1       -0.0856
     19 C           1.9132    1.9620    0.5602 C.3     1  LIG1       -0.0374
     20 H           2.4962    2.6500    1.1731 H       1  LIG1        0.0278
     21 H           2.4491    1.7815   -0.3730 H       1  LIG1        0.0278
     22 H           1.7913    1.0139    1.0822 H       1  LIG1        0.0278
     23 C           1.5162    4.8499   -0.2755 C.1     1  LIG1       -0.0682
     24 C           2.4700    5.5686   -0.4156 C.1     1  LIG1       -0.1139
     25 H           3.3130    6.2064   -0.5498 H       1  LIG1        0.1232
     26 C          -1.4203    5.6478   -0.6642 C.ar    1  LIG1        0.0312
     27 C          -1.1929    6.8374   -0.0345 C.ar    1  LIG1       -0.0198
     28 C          -1.8673    7.9209   -0.7130 C.ar    1  LIG1        0.0352
     29 C          -2.5773    7.5123   -1.8044 C.ar    1  LIG1       -0.0081
     30 S          -2.4437    5.8242   -2.0539 S.2     1  LIG1       -0.0946
     31 H          -3.1647    8.1294   -2.4644 H       1  LIG1        0.0706
     32 C          -0.3857    7.0430    1.2218 C.3     1  LIG1       -0.0374
     33 H          -0.9362    7.6951    1.9007 H       1  LIG1        0.0278
     34 H           0.5663    7.5165    0.9779 H       1  LIG1        0.0278
     35 H          -0.1885    6.0881    1.7064 H       1  LIG1        0.0278
     36 C          -1.8005    9.2858   -0.2633 C.1     1  LIG1       -0.0688
     37 C          -1.7319   10.4189    0.1323 C.1     1  LIG1       -0.1139
     38 H          -1.6746   11.4251    0.4779 H       1  LIG1        0.1232
@<TRIPOS>BOND
     1    13    12    1
     2    31    29    1
     3    30    29   ar
     4    30    26   ar
     5    12    11    3
     6    29    28   ar
     7    11     3    1
     8     9     7    1
     9    28    36    1
    10    28    27   ar
    11    26    17    1
    12    26    27   ar
    13    25    24    1
    14    24    23    3
    15    21    19    1
    16    17    16   ar
    17    17    18   ar
    18    23    16    1
    19    36    37    3
    20    16    15   ar
    21    18    14   ar
    22    27    32    1
    23     3     2   ar
    24     3     4   ar
    25     7     8    1
    26     7     2    1
    27     7    10    1
    28    37    38    1
    29    15    14   ar
    30    15    19    1
    31    14     4    1
    32     2     1   ar
    33    19    22    1
    34    19    20    1
    35     4     5   ar
    36    34    32    1
    37    32    35    1
    38    32    33    1
    39     1     5   ar
    40     1     6    1
