@<TRIPOS>MOLECULE
mol_data/opt/m06hf/geoms/mol2/5ie5ie-.out
 26 27 0 0 0
SMALL
GASTEIGER

@<TRIPOS>ATOM
      1 C          -1.9850   -1.6968    0.7928 C.ar    1  LIG1       -0.0196
      2 C          -0.7592   -1.8220    0.2227 C.ar    1  LIG1       -0.0274
      3 C          -0.2417   -0.5369   -0.1886 C.ar    1  LIG1        0.0428
      4 C          -1.0886    0.5044    0.0951 C.ar    1  LIG1        0.0418
      5 S          -2.5249   -0.0625    0.8614 S.2     1  LIG1       -0.0946
      6 H          -2.6069   -2.4876    1.1813 H       1  LIG1        0.0696
      7 C          -0.0079   -3.1138    0.0095 C.3     1  LIG1       -0.0380
      8 H           0.9520   -3.0779    0.5262 H       1  LIG1        0.0278
      9 H           0.1853   -3.2608   -1.0540 H       1  LIG1        0.0278
     10 H          -0.5877   -3.9541    0.3880 H       1  LIG1        0.0278
     11 C           1.0176   -0.3853   -0.8632 C.1     1  LIG1       -0.0682
     12 C           2.0735   -0.2949   -1.4311 C.1     1  LIG1       -0.1139
     13 H           3.0037   -0.2066   -1.9427 H       1  LIG1        0.1232
     14 C          -0.8784    1.9303   -0.1821 C.ar    1  LIG1        0.0312
     15 C           0.1823    2.7033    0.1918 C.ar    1  LIG1       -0.0198
     16 C           0.0337    4.0578   -0.2902 C.ar    1  LIG1        0.0352
     17 C          -1.1206    4.2559   -0.9899 C.ar    1  LIG1       -0.0081
     18 S          -2.0502    2.8228   -1.1007 S.2     1  LIG1       -0.0946
     19 H          -1.4566    5.1759   -1.4387 H       1  LIG1        0.0706
     20 C           1.3580    2.2607    1.0250 C.3     1  LIG1       -0.0374
     21 H           1.5522    3.0042    1.7987 H       1  LIG1        0.0278
     22 H           2.2456    2.1706    0.3969 H       1  LIG1        0.0278
     23 H           1.1535    1.2943    1.4834 H       1  LIG1        0.0278
     24 C           1.0029    5.0907   -0.0381 C.1     1  LIG1       -0.0688
     25 C           1.8206    5.9438    0.1831 C.1     1  LIG1       -0.1139
     26 H           2.5387    6.7067    0.3766 H       1  LIG1        0.1232
@<TRIPOS>BOND
     1    13    12    1
     2    19    17    1
     3    12    11    3
     4    18    17   ar
     5    18    14   ar
     6     9     7    1
     7    17    16   ar
     8    11     3    1
     9    16    24    1
    10    16    15   ar
    11     3     4   ar
    12     3     2   ar
    13    14     4    1
    14    14    15   ar
    15    24    25    3
    16     7     2    1
    17     7    10    1
    18     7     8    1
    19     4     5   ar
    20    25    26    1
    21    15    20    1
    22     2     1   ar
    23    22    20    1
    24     1     5   ar
    25     1     6    1
    26    20    23    1
    27    20    21    1
