@<TRIPOS>MOLECULE
mol_data/opt/m06hf/geoms/mol2/5ie5ie5ie-.out
 38 40 0 0 0
SMALL
GASTEIGER

@<TRIPOS>ATOM
      1 C          -1.7018   -1.6379    1.5287 C.ar    1  LIG1       -0.0196
      2 C          -0.8020   -1.8340    0.5312 C.ar    1  LIG1       -0.0274
      3 C          -0.3357   -0.5756   -0.0044 C.ar    1  LIG1        0.0428
      4 C          -0.8916    0.5156    0.6141 C.ar    1  LIG1        0.0418
      5 S          -1.9920    0.0291    1.8493 S.2     1  LIG1       -0.0946
      6 H          -2.2168   -2.3945    2.0994 H       1  LIG1        0.0696
      7 C          -0.3368   -3.1693    0.0036 C.3     1  LIG1       -0.0380
      8 H           0.7446   -3.2584    0.1142 H       1  LIG1        0.0278
      9 H          -0.5776   -3.2531   -1.0571 H       1  LIG1        0.0278
     10 H          -0.8202   -3.9801    0.5462 H       1  LIG1        0.0278
     11 C           0.5858   -0.4914   -1.1032 C.1     1  LIG1       -0.0682
     12 C           1.3555   -0.4570   -2.0264 C.1     1  LIG1       -0.1139
     13 H           2.0303   -0.4180   -2.8501 H       1  LIG1        0.1232
     14 C          -0.6425    1.9315    0.3173 C.ar    1  LIG1        0.0318
     15 C           0.5625    2.5723    0.2806 C.ar    1  LIG1       -0.0191
     16 C           0.4044    3.9584   -0.0886 C.ar    1  LIG1        0.0435
     17 C          -0.9019    4.3250   -0.2956 C.ar    1  LIG1        0.0424
     18 S          -1.9623    2.9890   -0.0625 S.2     1  LIG1       -0.0856
     19 C           1.9061    1.9608    0.5885 C.3     1  LIG1       -0.0374
     20 H           2.4817    2.6480    1.2091 H       1  LIG1        0.0278
     21 H           2.4532    1.7813   -0.3385 H       1  LIG1        0.0278
     22 H           1.7777    1.0123    1.1078 H       1  LIG1        0.0278
     23 C           1.5197    4.8498   -0.2488 C.1     1  LIG1       -0.0682
     24 C           2.4754    5.5684   -0.3766 C.1     1  LIG1       -0.1139
     25 H           3.3200    6.2062   -0.5000 H       1  LIG1        0.1232
     26 C          -1.4117    5.6488   -0.6719 C.ar    1  LIG1        0.0312
     27 C          -1.1916    6.8377   -0.0382 C.ar    1  LIG1       -0.0198
     28 C          -1.8576    7.9221   -0.7235 C.ar    1  LIG1        0.0352
     29 C          -2.5545    7.5149   -1.8238 C.ar    1  LIG1       -0.0081
     30 S          -2.4182    5.8270   -2.0736 S.2     1  LIG1       -0.0946
     31 H          -3.1338    8.1328   -2.4902 H       1  LIG1        0.0706
     32 C          -0.3996    7.0416    1.2280 C.3     1  LIG1       -0.0374
     33 H          -0.9581    7.6931    1.9009 H       1  LIG1        0.0278
     34 H           0.5554    7.5152    0.9962 H       1  LIG1        0.0278
     35 H          -0.2085    6.0862    1.7139 H       1  LIG1        0.0278
     36 C          -1.7960    9.2864   -0.2715 C.1     1  LIG1       -0.0688
     37 C          -1.7319   10.4191    0.1262 C.1     1  LIG1       -0.1139
     38 H          -1.6786   11.4249    0.4737 H       1  LIG1        0.1232
@<TRIPOS>BOND
     1    13    12    1
     2    31    29    1
     3    30    29   ar
     4    30    26   ar
     5    12    11    3
     6    29    28   ar
     7    11     3    1
     8     9     7    1
     9    28    36    1
    10    28    27   ar
    11    26    17    1
    12    26    27   ar
    13    25    24    1
    14    24    23    3
    15    21    19    1
    16    17    16   ar
    17    17    18   ar
    18    36    37    3
    19    23    16    1
    20    16    15   ar
    21    18    14   ar
    22    27    32    1
    23     3     2   ar
    24     3     4   ar
    25     7     8    1
    26     7     2    1
    27     7    10    1
    28    37    38    1
    29    15    14   ar
    30    15    19    1
    31    14     4    1
    32     2     1   ar
    33    19    22    1
    34    19    20    1
    35     4     5   ar
    36    34    32    1
    37    32    35    1
    38    32    33    1
    39     1     5   ar
    40     1     6    1
