@<TRIPOS>MOLECULE
mol_data/opt/m06hf/geoms/mol2/5ie5ie5ie.out
 38 40 0 0 0
SMALL
GASTEIGER

@<TRIPOS>ATOM
      1 C          -1.6974   -1.6341    1.5372 C.ar    1  LIG1       -0.0196
      2 C          -0.8019   -1.8327    0.5363 C.ar    1  LIG1       -0.0274
      3 C          -0.3373   -0.5757   -0.0039 C.ar    1  LIG1        0.0428
      4 C          -0.8900    0.5171    0.6146 C.ar    1  LIG1        0.0418
      5 S          -1.9853    0.0337    1.8555 S.2     1  LIG1       -0.0946
      6 H          -2.2103   -2.3893    2.1116 H       1  LIG1        0.0696
      7 C          -0.3397   -3.1694    0.0094 C.3     1  LIG1       -0.0380
      8 H           0.7422   -3.2584    0.1146 H       1  LIG1        0.0278
      9 H          -0.5861   -3.2556   -1.0499 H       1  LIG1        0.0278
     10 H          -0.8205   -3.9788    0.5564 H       1  LIG1        0.0278
     11 C           0.5793   -0.4943   -1.1070 C.1     1  LIG1       -0.0682
     12 C           1.3451   -0.4621   -2.0335 C.1     1  LIG1       -0.1139
     13 H           2.0166   -0.4251   -2.8601 H       1  LIG1        0.1232
     14 C          -0.6415    1.9322    0.3139 C.ar    1  LIG1        0.0318
     15 C           0.5636    2.5724    0.2705 C.ar    1  LIG1       -0.0191
     16 C           0.4045    3.9579   -0.1006 C.ar    1  LIG1        0.0435
     17 C          -0.9026    4.3248   -0.3021 C.ar    1  LIG1        0.0424
     18 S          -1.9625    2.9896   -0.0618 S.2     1  LIG1       -0.0856
     19 C           1.9083    1.9608    0.5733 C.3     1  LIG1       -0.0374
     20 H           2.4875    2.6491    1.1893 H       1  LIG1        0.0278
     21 H           2.4506    1.7784   -0.3558 H       1  LIG1        0.0278
     22 H           1.7818    1.0136    1.0957 H       1  LIG1        0.0278
     23 C           1.5195    4.8483   -0.2678 C.1     1  LIG1       -0.0682
     24 C           2.4749    5.5662   -0.4015 C.1     1  LIG1       -0.1139
     25 H           3.3193    6.2033   -0.5300 H       1  LIG1        0.1232
     26 C          -1.4135    5.6481   -0.6786 C.ar    1  LIG1        0.0312
     27 C          -1.1899    6.8382   -0.0484 C.ar    1  LIG1       -0.0198
     28 C          -1.8587    7.9214   -0.7328 C.ar    1  LIG1        0.0352
     29 C          -2.5610    7.5122   -1.8290 C.ar    1  LIG1       -0.0081
     30 S          -2.4266    5.8238   -2.0759 S.2     1  LIG1       -0.0946
     31 H          -3.1432    8.1290   -2.4939 H       1  LIG1        0.0706
     32 C          -0.3920    7.0444    1.2137 C.3     1  LIG1       -0.0374
     33 H          -0.9469    7.6979    1.8876 H       1  LIG1        0.0278
     34 H           0.5623    7.5167    0.9764 H       1  LIG1        0.0278
     35 H          -0.1994    6.0899    1.7008 H       1  LIG1        0.0278
     36 C          -1.7944    9.2867   -0.2840 C.1     1  LIG1       -0.0688
     37 C          -1.7282   10.4202    0.1110 C.1     1  LIG1       -0.1139
     38 H          -1.6729   11.4267    0.4559 H       1  LIG1        0.1232
@<TRIPOS>BOND
     1    13    12    1
     2    31    29    1
     3    30    29   ar
     4    30    26   ar
     5    12    11    3
     6    29    28   ar
     7    11     3    1
     8     9     7    1
     9    28    36    1
    10    28    27   ar
    11    26    17    1
    12    26    27   ar
    13    25    24    1
    14    24    23    3
    15    21    19    1
    16    17    16   ar
    17    17    18   ar
    18    36    37    3
    19    23    16    1
    20    16    15   ar
    21    18    14   ar
    22    27    32    1
    23     3     2   ar
    24     3     4   ar
    25     7     8    1
    26     7     2    1
    27     7    10    1
    28    37    38    1
    29    15    14   ar
    30    15    19    1
    31    14     4    1
    32     2     1   ar
    33    19    22    1
    34    19    20    1
    35     4     5   ar
    36    34    32    1
    37    32    35    1
    38    32    33    1
    39     1     5   ar
    40     1     6    1
