@<TRIPOS>MOLECULE
mol_data/opt/m06hf/geoms/mol2/5ie5ie.out
 26 27 0 0 0
SMALL
GASTEIGER

@<TRIPOS>ATOM
      1 C          -1.9889   -1.6992    0.7843 C.ar    1  LIG1       -0.0196
      2 C          -0.7592   -1.8229    0.2224 C.ar    1  LIG1       -0.0274
      3 C          -0.2396   -0.5369   -0.1834 C.ar    1  LIG1        0.0428
      4 C          -1.0889    0.5035    0.0963 C.ar    1  LIG1        0.0418
      5 S          -2.5303   -0.0654    0.8514 S.2     1  LIG1       -0.0946
      6 H          -2.6130   -2.4909    1.1674 H       1  LIG1        0.0696
      7 C          -0.0059   -3.1140    0.0123 C.3     1  LIG1       -0.0380
      8 H           0.9506   -3.0783    0.5355 H       1  LIG1        0.0278
      9 H           0.1945   -3.2593   -1.0501 H       1  LIG1        0.0278
     10 H          -0.5877   -3.9552    0.3857 H       1  LIG1        0.0278
     11 C           1.0241   -0.3838   -0.8492 C.1     1  LIG1       -0.0682
     12 C           2.0839   -0.2914   -1.4096 C.1     1  LIG1       -0.1139
     13 H           3.0176   -0.2014   -1.9145 H       1  LIG1        0.1232
     14 C          -0.8774    1.9300   -0.1772 C.ar    1  LIG1        0.0312
     15 C           0.1802    2.7029    0.2052 C.ar    1  LIG1       -0.0198
     16 C           0.0340    4.0583   -0.2751 C.ar    1  LIG1        0.0352
     17 C          -1.1156    4.2568   -0.9825 C.ar    1  LIG1       -0.0081
     18 S          -2.0435    2.8232   -1.1024 S.2     1  LIG1       -0.0946
     19 H          -1.4491    5.1775   -1.4318 H       1  LIG1        0.0706
     20 C           1.3505    2.2595    1.0457 C.3     1  LIG1       -0.0374
     21 H           1.5385    3.0016    1.8224 H       1  LIG1        0.0278
     22 H           2.2425    2.1717    0.4236 H       1  LIG1        0.0278
     23 H           1.1437    1.2920    1.5005 H       1  LIG1        0.0278
     24 C           1.0007    5.0912   -0.0143 C.1     1  LIG1       -0.0688
     25 C           1.8159    5.9448    0.2140 C.1     1  LIG1       -0.1139
     26 H           2.5321    6.7078    0.4139 H       1  LIG1        0.1232
@<TRIPOS>BOND
     1    13    12    1
     2    19    17    1
     3    12    11    3
     4    18    17   ar
     5    18    14   ar
     6     9     7    1
     7    17    16   ar
     8    11     3    1
     9    16    24    1
    10    16    15   ar
    11     3     4   ar
    12     3     2   ar
    13    14     4    1
    14    14    15   ar
    15    24    25    3
    16     7     2    1
    17     7    10    1
    18     7     8    1
    19     4     5   ar
    20    15    20    1
    21    25    26    1
    22     2     1   ar
    23    22    20    1
    24     1     5   ar
    25     1     6    1
    26    20    23    1
    27    20    21    1
