@<TRIPOS>MOLECULE
mol_data/opt/m06hf/geoms/mol2/5ie5ie5ie-5ie.out
 50 53 0 0 0
SMALL
GASTEIGER

@<TRIPOS>ATOM
      1 C          -1.2005   -1.4324    2.3307 C.ar    1  LIG1       -0.0196
      2 C          -0.7844   -1.7256    1.0720 C.ar    1  LIG1       -0.0274
      3 C          -0.4837   -0.5234    0.3281 C.ar    1  LIG1        0.0428
      4 C          -0.6709    0.6250    1.0556 C.ar    1  LIG1        0.0418
      5 S          -1.2243    0.2613    2.6486 S.2     1  LIG1       -0.0946
      6 H          -1.4980   -2.1291    3.0985 H       1  LIG1        0.0696
      7 C          -0.6537   -3.1077    0.4793 C.3     1  LIG1       -0.0380
      8 H           0.3762   -3.2827    0.1656 H       1  LIG1        0.0278
      9 H          -1.2955   -3.1979   -0.3980 H       1  LIG1        0.0278
     10 H          -0.9385   -3.8618    1.2114 H       1  LIG1        0.0278
     11 C          -0.0724   -0.5431   -1.0479 C.1     1  LIG1       -0.0682
     12 C           0.2685   -0.5901   -2.2003 C.1     1  LIG1       -0.1139
     13 H           0.5652   -0.6199   -3.2234 H       1  LIG1        0.1232
     14 C          -0.4608    2.0096    0.6169 C.ar    1  LIG1        0.0318
     15 C           0.6640    2.5457    0.0577 C.ar    1  LIG1       -0.0191
     16 C           0.4750    3.9420   -0.2552 C.ar    1  LIG1        0.0435
     17 C          -0.7614    4.4214    0.0981 C.ar    1  LIG1        0.0424
     18 S          -1.7306    3.1767    0.7938 S.2     1  LIG1       -0.0856
     19 C           1.9649    1.8274   -0.1955 C.3     1  LIG1       -0.0374
     20 H           2.7922    2.4487    0.1487 H       1  LIG1        0.0278
     21 H           2.0870    1.6439   -1.2641 H       1  LIG1        0.0278
     22 H           1.9756    0.8725    0.3275 H       1  LIG1        0.0278
     23 C           1.4855    4.7361   -0.8975 C.1     1  LIG1       -0.0682
     24 C           2.3489    5.3747   -1.4387 C.1     1  LIG1       -0.1139
     25 H           3.1054    5.9438   -1.9279 H       1  LIG1        0.1232
     26 C          -1.2677    5.7899   -0.0599 C.ar    1  LIG1        0.0318
     27 C          -0.6932    6.9450    0.3887 C.ar    1  LIG1       -0.0191
     28 C          -1.4783    8.0962    0.0138 C.ar    1  LIG1        0.0435
     29 C          -2.6218    7.7792   -0.6761 C.ar    1  LIG1        0.0424
     30 S          -2.7558    6.0777   -0.9031 S.2     1  LIG1       -0.0856
     31 C           0.5779    7.0560    1.1915 C.3     1  LIG1       -0.0374
     32 H           0.4194    7.7400    2.0258 H       1  LIG1        0.0278
     33 H           1.3800    7.4489    0.5652 H       1  LIG1        0.0278
     34 H           0.8731    6.0777    1.5676 H       1  LIG1        0.0278
     35 C          -1.0783    9.4414    0.3192 C.1     1  LIG1       -0.0682
     36 C          -0.7204   10.5578    0.5854 C.1     1  LIG1       -0.1139
     37 H          -0.4070   11.5511    0.8095 H       1  LIG1        0.1232
     38 C          -3.6441    8.7048   -1.1794 C.ar    1  LIG1        0.0312
     39 C          -4.3343    9.6450   -0.4697 C.ar    1  LIG1       -0.0198
     40 C          -5.2446   10.3742   -1.3232 C.ar    1  LIG1        0.0352
     41 C          -5.2155    9.9554   -2.6219 C.ar    1  LIG1       -0.0081
     42 S          -4.0904    8.6883   -2.8579 S.2     1  LIG1       -0.0946
     43 H          -5.8047   10.3375   -3.4393 H       1  LIG1        0.0706
     44 C          -4.2287    9.9042    1.0117 C.3     1  LIG1       -0.0374
     45 H          -5.2305    9.9688    1.4377 H       1  LIG1        0.0278
     46 H          -3.7134   10.8498    1.1868 H       1  LIG1        0.0278
     47 H          -3.6714    9.1055    1.4981 H       1  LIG1        0.0278
     48 C          -6.1030   11.4211   -0.8377 C.1     1  LIG1       -0.0688
     49 C          -6.8149   12.2905   -0.4114 C.1     1  LIG1       -0.1139
     50 H          -7.4483   13.0622   -0.0403 H       1  LIG1        0.1232
@<TRIPOS>BOND
     1    43    41    1
     2    13    12    1
     3    42    41   ar
     4    42    38   ar
     5    41    40   ar
     6    12    11    3
     7    25    24    1
     8    24    23    3
     9    40    48    1
    10    40    39   ar
    11    21    19    1
    12    38    29    1
    13    38    39   ar
    14    11     3    1
    15    30    29   ar
    16    30    26   ar
    17    23    16    1
    18    48    49    3
    19    29    28   ar
    20    39    44    1
    21    49    50    1
    22     9     7    1
    23    16    15   ar
    24    16    17   ar
    25    19    15    1
    26    19    20    1
    27    19    22    1
    28    26    17    1
    29    26    27   ar
    30    28    35    1
    31    28    27   ar
    32    15    14   ar
    33    17    18   ar
    34     8     7    1
    35    35    36    3
    36     3     4   ar
    37     3     2   ar
    38    27    31    1
    39     7     2    1
    40     7    10    1
    41    33    31    1
    42    36    37    1
    43    14    18   ar
    44    14     4    1
    45    44    46    1
    46    44    45    1
    47    44    47    1
    48     4     5   ar
    49     2     1   ar
    50    31    34    1
    51    31    32    1
    52     1     5   ar
    53     1     6    1
