@<TRIPOS>MOLECULE
mol_data/opt/m06hf/geoms/mol2/5ie5ie-5ie-5ie.out
 50 53 0 0 0
SMALL
GASTEIGER

@<TRIPOS>ATOM
      1 C          -1.1630   -1.4444    2.3130 C.ar    1  LIG1       -0.0196
      2 C          -0.7635   -1.7305    1.0474 C.ar    1  LIG1       -0.0274
      3 C          -0.4740   -0.5242    0.3058 C.ar    1  LIG1        0.0428
      4 C          -0.6526    0.6202    1.0418 C.ar    1  LIG1        0.0418
      5 S          -1.1843    0.2476    2.6401 S.2     1  LIG1       -0.0946
      6 H          -1.4495   -2.1454    3.0811 H       1  LIG1        0.0696
      7 C          -0.6394   -3.1094    0.4458 C.3     1  LIG1       -0.0380
      8 H           0.3864   -3.2817    0.1174 H       1  LIG1        0.0278
      9 H          -1.2928   -3.1958   -0.4233 H       1  LIG1        0.0278
     10 H          -0.9135   -3.8676    1.1776 H       1  LIG1        0.0278
     11 C          -0.0812   -0.5363   -1.0757 C.1     1  LIG1       -0.0682
     12 C           0.2444   -0.5769   -2.2327 C.1     1  LIG1       -0.1139
     13 H           0.5275   -0.6011   -3.2598 H       1  LIG1        0.1232
     14 C          -0.4497    2.0072    0.6076 C.ar    1  LIG1        0.0318
     15 C           0.6670    2.5475    0.0362 C.ar    1  LIG1       -0.0191
     16 C           0.4725    3.9452   -0.2668 C.ar    1  LIG1        0.0435
     17 C          -0.7596    4.4214    0.1055 C.ar    1  LIG1        0.0424
     18 S          -1.7181    3.1721    0.8075 S.2     1  LIG1       -0.0856
     19 C           1.9650    1.8319   -0.2381 C.3     1  LIG1       -0.0374
     20 H           2.7963    2.4522    0.0983 H       1  LIG1        0.0278
     21 H           2.0730    1.6542   -1.3092 H       1  LIG1        0.0278
     22 H           1.9837    0.8743    0.2797 H       1  LIG1        0.0278
     23 C           1.4735    4.7437   -0.9184 C.1     1  LIG1       -0.0682
     24 C           2.3290    5.3860   -1.4677 C.1     1  LIG1       -0.1139
     25 H           3.0783    5.9584   -1.9640 H       1  LIG1        0.1232
     26 C          -1.2693    5.7903   -0.0385 C.ar    1  LIG1        0.0318
     27 C          -0.6900    6.9435    0.4085 C.ar    1  LIG1       -0.0191
     28 C          -1.4811    8.0959    0.0502 C.ar    1  LIG1        0.0435
     29 C          -2.6335    7.7813   -0.6260 C.ar    1  LIG1        0.0424
     30 S          -2.7688    6.0809   -0.8601 S.2     1  LIG1       -0.0856
     31 C           0.5917    7.0517    1.1948 C.3     1  LIG1       -0.0374
     32 H           0.4437    7.7311    2.0347 H       1  LIG1        0.0278
     33 H           1.3850    7.4487    0.5598 H       1  LIG1        0.0278
     34 H           0.8928    6.0717    1.5618 H       1  LIG1        0.0278
     35 C          -1.0784    9.4399    0.3572 C.1     1  LIG1       -0.0682
     36 C          -0.7181   10.5553    0.6245 C.1     1  LIG1       -0.1139
     37 H          -0.4027   11.5476    0.8497 H       1  LIG1        0.1232
     38 C          -3.6633    8.7084   -1.1107 C.ar    1  LIG1        0.0312
     39 C          -4.3449    9.6442   -0.3869 C.ar    1  LIG1       -0.0198
     40 C          -5.2673   10.3769   -1.2243 C.ar    1  LIG1        0.0352
     41 C          -5.2551    9.9649   -2.5254 C.ar    1  LIG1       -0.0081
     42 S          -4.1321    8.7003   -2.7831 S.2     1  LIG1       -0.0946
     43 H          -5.8557   10.3507   -3.3328 H       1  LIG1        0.0706
     44 C          -4.2197    9.8958    1.0943 C.3     1  LIG1       -0.0374
     45 H          -5.2157    9.9572    1.5340 H       1  LIG1        0.0278
     46 H          -3.7030   10.8409    1.2674 H       1  LIG1        0.0278
     47 H          -3.6552    9.0950    1.5689 H       1  LIG1        0.0278
     48 C          -6.1201   11.4204   -0.7219 C.1     1  LIG1       -0.0688
     49 C          -6.8270   12.2868   -0.2815 C.1     1  LIG1       -0.1139
     50 H          -7.4561   13.0558    0.1021 H       1  LIG1        0.1232
@<TRIPOS>BOND
     1    43    41    1
     2    13    12    1
     3    42    41   ar
     4    42    38   ar
     5    41    40   ar
     6    12    11    3
     7    25    24    1
     8    24    23    3
     9    21    19    1
    10    40    48    1
    11    40    39   ar
    12    38    29    1
    13    38    39   ar
    14    11     3    1
    15    23    16    1
    16    30    29   ar
    17    30    26   ar
    18    48    49    3
    19    29    28   ar
    20     9     7    1
    21    39    44    1
    22    49    50    1
    23    16    15   ar
    24    16    17   ar
    25    19    15    1
    26    19    20    1
    27    19    22    1
    28    26    17    1
    29    26    27   ar
    30    15    14   ar
    31    28    35    1
    32    28    27   ar
    33    17    18   ar
    34     8     7    1
    35     3     4   ar
    36     3     2   ar
    37    35    36    3
    38    27    31    1
    39     7     2    1
    40     7    10    1
    41    33    31    1
    42    14    18   ar
    43    14     4    1
    44    36    37    1
    45     4     5   ar
    46     2     1   ar
    47    44    46    1
    48    44    45    1
    49    44    47    1
    50    31    34    1
    51    31    32    1
    52     1     5   ar
    53     1     6    1
