@<TRIPOS>MOLECULE
mol_data/opt/m06hf/geoms/mol2/5ie5ie5ie5ie-.out
 50 53 0 0 0
SMALL
GASTEIGER

@<TRIPOS>ATOM
      1 C          -1.1790   -1.4249    2.3471 C.ar    1  LIG1       -0.0196
      2 C          -0.7724   -1.7218    1.0862 C.ar    1  LIG1       -0.0274
      3 C          -0.4781   -0.5219    0.3362 C.ar    1  LIG1        0.0428
      4 C          -0.6604    0.6287    1.0616 C.ar    1  LIG1        0.0418
      5 S          -1.2014    0.2698    2.6599 S.2     1  LIG1       -0.0946
      6 H          -1.4702   -2.1193    3.1194 H       1  LIG1        0.0696
      7 C          -0.6455   -3.1058    0.4969 C.3     1  LIG1       -0.0380
      8 H           0.3821   -3.2812    0.1758 H       1  LIG1        0.0278
      9 H          -1.2939   -3.1991   -0.3752 H       1  LIG1        0.0278
     10 H          -0.9242   -3.8577    1.2335 H       1  LIG1        0.0278
     11 C          -0.0774   -0.5457   -1.0428 C.1     1  LIG1       -0.0682
     12 C           0.2548   -0.5961   -2.1976 C.1     1  LIG1       -0.1139
     13 H           0.5437   -0.6291   -3.2229 H       1  LIG1        0.1232
     14 C          -0.4543    2.0120    0.6169 C.ar    1  LIG1        0.0318
     15 C           0.6659    2.5470    0.0474 C.ar    1  LIG1       -0.0191
     16 C           0.4737    3.9422   -0.2684 C.ar    1  LIG1        0.0435
     17 C          -0.7603    4.4220    0.0928 C.ar    1  LIG1        0.0424
     18 S          -1.7234    3.1791    0.7998 S.2     1  LIG1       -0.0856
     19 C           1.9651    1.8286   -0.2135 C.3     1  LIG1       -0.0374
     20 H           2.7948    2.4514    0.1224 H       1  LIG1        0.0278
     21 H           2.0791    1.6418   -1.2825 H       1  LIG1        0.0278
     22 H           1.9804    0.8754    0.3124 H       1  LIG1        0.0278
     23 C           1.4788    4.7348   -0.9209 C.1     1  LIG1       -0.0682
     24 C           2.3377    5.3721   -1.4707 C.1     1  LIG1       -0.1139
     25 H           3.0901    5.9400   -1.9675 H       1  LIG1        0.1232
     26 C          -1.2685    5.7898   -0.0656 C.ar    1  LIG1        0.0318
     27 C          -0.6912    6.9465    0.3750 C.ar    1  LIG1       -0.0191
     28 C          -1.4798    8.0962    0.0026 C.ar    1  LIG1        0.0435
     29 C          -2.6284    7.7764   -0.6775 C.ar    1  LIG1        0.0424
     30 S          -2.7631    6.0741   -0.8982 S.2     1  LIG1       -0.0856
     31 C           0.5860    7.0608    1.1677 C.3     1  LIG1       -0.0374
     32 H           0.4335    7.7473    2.0010 H       1  LIG1        0.0278
     33 H           1.3831    7.4522    0.5339 H       1  LIG1        0.0278
     34 H           0.8846    6.0838    1.5446 H       1  LIG1        0.0278
     35 C          -1.0782    9.4425    0.3006 C.1     1  LIG1       -0.0682
     36 C          -0.7189   10.5600    0.5605 C.1     1  LIG1       -0.1139
     37 H          -0.4043   11.5541    0.7792 H       1  LIG1        0.1232
     38 C          -3.6550    8.6999   -1.1759 C.ar    1  LIG1        0.0312
     39 C          -4.3402    9.6420   -0.4639 C.ar    1  LIG1       -0.0198
     40 C          -5.2575   10.3680   -1.3127 C.ar    1  LIG1        0.0352
     41 C          -5.2381    9.9451   -2.6102 C.ar    1  LIG1       -0.0081
     42 S          -4.1143    8.6779   -2.8509 S.2     1  LIG1       -0.0946
     43 H          -5.8338   10.3244   -3.4242 H       1  LIG1        0.0706
     44 C          -4.2234    9.9059    1.0158 C.3     1  LIG1       -0.0374
     45 H          -5.2219    9.9714    1.4493 H       1  LIG1        0.0278
     46 H          -3.7073   10.8523    1.1839 H       1  LIG1        0.0278
     47 H          -3.6619    9.1090    1.5004 H       1  LIG1        0.0278
     48 C          -6.1127   11.4161   -0.8239 C.1     1  LIG1       -0.0688
     49 C          -6.8217   12.2864   -0.3949 C.1     1  LIG1       -0.1139
     50 H          -7.4526   13.0589   -0.0214 H       1  LIG1        0.1232
@<TRIPOS>BOND
     1    43    41    1
     2    13    12    1
     3    42    41   ar
     4    42    38   ar
     5    41    40   ar
     6    12    11    3
     7    25    24    1
     8    24    23    3
     9    40    48    1
    10    40    39   ar
    11    21    19    1
    12    38    29    1
    13    38    39   ar
    14    11     3    1
    15    23    16    1
    16    30    29   ar
    17    30    26   ar
    18    48    49    3
    19    29    28   ar
    20    39    44    1
    21    49    50    1
    22     9     7    1
    23    16    15   ar
    24    16    17   ar
    25    19    15    1
    26    19    20    1
    27    19    22    1
    28    26    17    1
    29    26    27   ar
    30    28    35    1
    31    28    27   ar
    32    15    14   ar
    33    17    18   ar
    34     8     7    1
    35    35    36    3
    36     3     4   ar
    37     3     2   ar
    38    27    31    1
    39     7     2    1
    40     7    10    1
    41    33    31    1
    42    36    37    1
    43    14    18   ar
    44    14     4    1
    45    44    46    1
    46    44    45    1
    47    44    47    1
    48     4     5   ar
    49     2     1   ar
    50    31    34    1
    51    31    32    1
    52     1     5   ar
    53     1     6    1
