@<TRIPOS>MOLECULE
mol_data/opt/m06hf/geoms/mol2/5ie5ie5ie-5ie-.out
 50 53 0 0 0
SMALL
GASTEIGER

@<TRIPOS>ATOM
      1 C          -1.2027   -1.4305    2.3304 C.ar    1  LIG1       -0.0196
      2 C          -0.7920   -1.7256    1.0705 C.ar    1  LIG1       -0.0274
      3 C          -0.4920   -0.5246    0.3243 C.ar    1  LIG1        0.0428
      4 C          -0.6744    0.6248    1.0515 C.ar    1  LIG1        0.0418
      5 S          -1.2223    0.2635    2.6469 S.2     1  LIG1       -0.0946
      6 H          -1.4985   -2.1260    3.1000 H       1  LIG1        0.0696
      7 C          -0.6660   -3.1085    0.4785 C.3     1  LIG1       -0.0380
      8 H           0.3624   -3.2856    0.1611 H       1  LIG1        0.0278
      9 H          -1.3113   -3.1983   -0.3963 H       1  LIG1        0.0278
     10 H          -0.9494   -3.8614    1.2123 H       1  LIG1        0.0278
     11 C          -0.0861   -0.5463   -1.0533 C.1     1  LIG1       -0.0682
     12 C           0.2504   -0.5949   -2.2069 C.1     1  LIG1       -0.1139
     13 H           0.5431   -0.6262   -3.2311 H       1  LIG1        0.1232
     14 C          -0.4635    2.0086    0.6107 C.ar    1  LIG1        0.0318
     15 C           0.6601    2.5422    0.0467 C.ar    1  LIG1       -0.0191
     16 C           0.4724    3.9386   -0.2667 C.ar    1  LIG1        0.0435
     17 C          -0.7619    4.4204    0.0908 C.ar    1  LIG1        0.0424
     18 S          -1.7305    3.1781    0.7914 S.2     1  LIG1       -0.0856
     19 C           1.9587    1.8214   -0.2108 C.3     1  LIG1       -0.0374
     20 H           2.7885    2.4415    0.1299 H       1  LIG1        0.0278
     21 H           2.0765    1.6369   -1.2797 H       1  LIG1        0.0278
     22 H           1.9697    0.8669    0.3129 H       1  LIG1        0.0278
     23 C           1.4818    4.7303   -0.9136 C.1     1  LIG1       -0.0682
     24 C           2.3443    5.3668   -1.4587 C.1     1  LIG1       -0.1139
     25 H           3.0999    5.9341   -1.9513 H       1  LIG1        0.1232
     26 C          -1.2663    5.7898   -0.0665 C.ar    1  LIG1        0.0318
     27 C          -0.6880    6.9442    0.3789 C.ar    1  LIG1       -0.0191
     28 C          -1.4725    8.0965    0.0060 C.ar    1  LIG1        0.0435
     29 C          -2.6192    7.7808   -0.6793 C.ar    1  LIG1        0.0424
     30 S          -2.7571    6.0794   -0.9042 S.2     1  LIG1       -0.0856
     31 C           0.5864    7.0537    1.1767 C.3     1  LIG1       -0.0374
     32 H           0.4322    7.7387    2.0109 H       1  LIG1        0.0278
     33 H           1.3867    7.4446    0.5469 H       1  LIG1        0.0278
     34 H           0.8812    6.0752    1.5525 H       1  LIG1        0.0278
     35 C          -1.0690    9.4412    0.3085 C.1     1  LIG1       -0.0682
     36 C          -0.7081   10.5573    0.5723 C.1     1  LIG1       -0.1139
     37 H          -0.3921   11.5501    0.7943 H       1  LIG1        0.1232
     38 C          -3.6418    8.7077   -1.1796 C.ar    1  LIG1        0.0312
     39 C          -4.3276    9.6499   -0.4681 C.ar    1  LIG1       -0.0198
     40 C          -5.2399   10.3799   -1.3188 C.ar    1  LIG1        0.0352
     41 C          -5.2165    9.9598   -2.6172 C.ar    1  LIG1       -0.0081
     42 S          -4.0946    8.6906   -2.8563 S.2     1  LIG1       -0.0946
     43 H          -5.8082   10.3422   -3.4327 H       1  LIG1        0.0706
     44 C          -4.2159    9.9102    1.0127 C.3     1  LIG1       -0.0374
     45 H          -5.2159    9.9770    1.4424 H       1  LIG1        0.0278
     46 H          -3.6983   10.8550    1.1849 H       1  LIG1        0.0278
     47 H          -3.6582    9.1109    1.4976 H       1  LIG1        0.0278
     48 C          -6.0946   11.4288   -0.8310 C.1     1  LIG1       -0.0688
     49 C          -6.8033   12.2998   -0.4028 C.1     1  LIG1       -0.1139
     50 H          -7.4339   13.0729   -0.0300 H       1  LIG1        0.1232
@<TRIPOS>BOND
     1    43    41    1
     2    13    12    1
     3    42    41   ar
     4    42    38   ar
     5    41    40   ar
     6    12    11    3
     7    25    24    1
     8    24    23    3
     9    40    48    1
    10    40    39   ar
    11    21    19    1
    12    38    29    1
    13    38    39   ar
    14    11     3    1
    15    23    16    1
    16    30    29   ar
    17    30    26   ar
    18    48    49    3
    19    29    28   ar
    20    39    44    1
    21    49    50    1
    22     9     7    1
    23    16    15   ar
    24    16    17   ar
    25    19    15    1
    26    19    20    1
    27    19    22    1
    28    26    17    1
    29    26    27   ar
    30    28    35    1
    31    28    27   ar
    32    15    14   ar
    33    17    18   ar
    34     8     7    1
    35    35    36    3
    36     3     4   ar
    37     3     2   ar
    38    27    31    1
    39     7     2    1
    40     7    10    1
    41    33    31    1
    42    36    37    1
    43    14    18   ar
    44    14     4    1
    45    44    46    1
    46    44    45    1
    47    44    47    1
    48     4     5   ar
    49     2     1   ar
    50    31    34    1
    51    31    32    1
    52     1     5   ar
    53     1     6    1
