@<TRIPOS>MOLECULE
mol_data/opt/m06hf/geoms/mol2/5ie5ie-5ie-.out
 38 40 0 0 0
SMALL
GASTEIGER

@<TRIPOS>ATOM
      1 C          -1.6656   -1.6444    1.5456 C.ar    1  LIG1       -0.0196
      2 C          -0.7811   -1.8363    0.5336 C.ar    1  LIG1       -0.0274
      3 C          -0.3265   -0.5758   -0.0068 C.ar    1  LIG1        0.0428
      4 C          -0.8753    0.5129    0.6225 C.ar    1  LIG1        0.0418
      5 S          -1.9548    0.0212    1.8739 S.2     1  LIG1       -0.0946
      6 H          -2.1697   -2.4034    2.1229 H       1  LIG1        0.0696
      7 C          -0.3209   -3.1695   -0.0038 C.3     1  LIG1       -0.0380
      8 H           0.7623   -3.2560    0.0897 H       1  LIG1        0.0278
      9 H          -0.5782   -3.2519   -1.0607 H       1  LIG1        0.0278
     10 H          -0.7938   -3.9825    0.5448 H       1  LIG1        0.0278
     11 C           0.5774   -0.4872   -1.1198 C.1     1  LIG1       -0.0682
     12 C           1.3324   -0.4490   -2.0549 C.1     1  LIG1       -0.1139
     13 H           1.9941   -0.4067   -2.8890 H       1  LIG1        0.1232
     14 C          -0.6344    1.9299    0.3246 C.ar    1  LIG1        0.0318
     15 C           0.5682    2.5738    0.2702 C.ar    1  LIG1       -0.0191
     16 C           0.4009    3.9603   -0.0937 C.ar    1  LIG1        0.0435
     17 C          -0.9095    4.3240   -0.2794 C.ar    1  LIG1        0.0424
     18 S          -1.9627    2.9848   -0.0322 S.2     1  LIG1       -0.0856
     19 C           1.9180    1.9652    0.5557 C.3     1  LIG1       -0.0374
     20 H           2.5016    2.6527    1.1686 H       1  LIG1        0.0278
     21 H           2.4509    1.7889   -0.3801 H       1  LIG1        0.0278
     22 H           1.8002    1.0153    1.0751 H       1  LIG1        0.0278
     23 C           1.5113    4.8548   -0.2697 C.1     1  LIG1       -0.0682
     24 C           2.4630    5.5761   -0.4112 C.1     1  LIG1       -0.1139
     25 H           3.3040    6.2162   -0.5466 H       1  LIG1        0.1232
     26 C          -1.4284    5.6472   -0.6450 C.ar    1  LIG1        0.0312
     27 C          -1.2014    6.8354   -0.0124 C.ar    1  LIG1       -0.0198
     28 C          -1.8809    7.9194   -0.6849 C.ar    1  LIG1        0.0352
     29 C          -2.5940    7.5126   -1.7749 C.ar    1  LIG1       -0.0081
     30 S          -2.4573    5.8256   -2.0303 S.2     1  LIG1       -0.0946
     31 H          -3.1853    8.1303   -2.4308 H       1  LIG1        0.0706
     32 C          -0.3901    7.0389    1.2416 C.3     1  LIG1       -0.0374
     33 H          -0.9394    7.6878    1.9244 H       1  LIG1        0.0278
     34 H           0.5601    7.5151    0.9956 H       1  LIG1        0.0278
     35 H          -0.1891    6.0830    1.7226 H       1  LIG1        0.0278
     36 C          -1.8156    9.2831   -0.2312 C.1     1  LIG1       -0.0688
     37 C          -1.7483   10.4151    0.1677 C.1     1  LIG1       -0.1139
     38 H          -1.6921   11.4204    0.5163 H       1  LIG1        0.1232
@<TRIPOS>BOND
     1    13    12    1
     2    31    29    1
     3    12    11    3
     4    30    29   ar
     5    30    26   ar
     6    29    28   ar
     7    11     3    1
     8     9     7    1
     9    28    36    1
    10    28    27   ar
    11    26    17    1
    12    26    27   ar
    13    25    24    1
    14    24    23    3
    15    21    19    1
    16    17    16   ar
    17    17    18   ar
    18    23    16    1
    19    36    37    3
    20    16    15   ar
    21    18    14   ar
    22    27    32    1
    23     3     2   ar
    24     3     4   ar
    25     7     8    1
    26     7     2    1
    27     7    10    1
    28    37    38    1
    29    15    14   ar
    30    15    19    1
    31    14     4    1
    32     2     1   ar
    33    19    22    1
    34    19    20    1
    35     4     5   ar
    36    34    32    1
    37    32    35    1
    38    32    33    1
    39     1     5   ar
    40     1     6    1
