@<TRIPOS>MOLECULE
mol_data/opt/m06hf/geoms/mol2/5ie5ie-5ie-5ie-.out
 50 53 0 0 0
SMALL
GASTEIGER

@<TRIPOS>ATOM
      1 C          -1.1641   -1.4393    2.3216 C.ar    1  LIG1       -0.0196
      2 C          -0.7688   -1.7289    1.0555 C.ar    1  LIG1       -0.0274
      3 C          -0.4800   -0.5246    0.3103 C.ar    1  LIG1        0.0428
      4 C          -0.6549    0.6217    1.0442 C.ar    1  LIG1        0.0418
      5 S          -1.1822    0.2534    2.6449 S.2     1  LIG1       -0.0946
      6 H          -1.4492   -2.1382    3.0922 H       1  LIG1        0.0696
      7 C          -0.6483   -3.1093    0.4567 C.3     1  LIG1       -0.0380
      8 H           0.3763   -3.2836    0.1256 H       1  LIG1        0.0278
      9 H          -1.3043   -3.1968   -0.4103 H       1  LIG1        0.0278
     10 H          -0.9212   -3.8654    1.1910 H       1  LIG1        0.0278
     11 C          -0.0914   -0.5404   -1.0724 C.1     1  LIG1       -0.0682
     12 C           0.2306   -0.5840   -2.2303 C.1     1  LIG1       -0.1139
     13 H           0.5105   -0.6109   -3.2582 H       1  LIG1        0.1232
     14 C          -0.4515    2.0075    0.6062 C.ar    1  LIG1        0.0318
     15 C           0.6641    2.5450    0.0301 C.ar    1  LIG1       -0.0191
     16 C           0.4704    3.9423   -0.2755 C.ar    1  LIG1        0.0435
     17 C          -0.7600    4.4209    0.0995 C.ar    1  LIG1        0.0424
     18 S          -1.7179    3.1745    0.8073 S.2     1  LIG1       -0.0856
     19 C           1.9604    1.8271   -0.2465 C.3     1  LIG1       -0.0374
     20 H           2.7935    2.4472    0.0860 H       1  LIG1        0.0278
     21 H           2.0649    1.6468   -1.3175 H       1  LIG1        0.0278
     22 H           1.9794    0.8707    0.2735 H       1  LIG1        0.0278
     23 C           1.4705    4.7380   -0.9319 C.1     1  LIG1       -0.0682
     24 C           2.3251    5.3779   -1.4853 C.1     1  LIG1       -0.1139
     25 H           3.0736    5.9483   -1.9852 H       1  LIG1        0.1232
     26 C          -1.2683    5.7901   -0.0461 C.ar    1  LIG1        0.0318
     27 C          -0.6862    6.9436    0.3964 C.ar    1  LIG1       -0.0191
     28 C          -1.4769    8.0962    0.0379 C.ar    1  LIG1        0.0435
     29 C          -2.6317    7.7815   -0.6341 C.ar    1  LIG1        0.0424
     30 S          -2.7699    6.0807   -0.8639 S.2     1  LIG1       -0.0856
     31 C           0.5980    7.0519    1.1785 C.3     1  LIG1       -0.0374
     32 H           0.4534    7.7335    2.0173 H       1  LIG1        0.0278
     33 H           1.3899    7.4465    0.5403 H       1  LIG1        0.0278
     34 H           0.8990    6.0724    1.5468 H       1  LIG1        0.0278
     35 C          -1.0716    9.4403    0.3406 C.1     1  LIG1       -0.0682
     36 C          -0.7090   10.5559    0.6042 C.1     1  LIG1       -0.1139
     37 H          -0.3917   11.5484    0.8261 H       1  LIG1        0.1232
     38 C          -3.6618    8.7088   -1.1179 C.ar    1  LIG1        0.0312
     39 C          -4.3400    9.6472   -0.3941 C.ar    1  LIG1       -0.0198
     40 C          -5.2640   10.3791   -1.2304 C.ar    1  LIG1        0.0352
     41 C          -5.2563    9.9641   -2.5306 C.ar    1  LIG1       -0.0081
     42 S          -4.1357    8.6974   -2.7888 S.2     1  LIG1       -0.0946
     43 H          -5.8588   10.3488   -3.3371 H       1  LIG1        0.0706
     44 C          -4.2100    9.9019    1.0861 C.3     1  LIG1       -0.0374
     45 H          -5.2047    9.9656    1.5287 H       1  LIG1        0.0278
     46 H          -3.6917   10.8469    1.2554 H       1  LIG1        0.0278
     47 H          -3.6450    9.1016    1.5609 H       1  LIG1        0.0278
     48 C          -6.1140   11.4248   -0.7279 C.1     1  LIG1       -0.0688
     49 C          -6.8185   12.2931   -0.2874 C.1     1  LIG1       -0.1139
     50 H          -7.4454   13.0639    0.0963 H       1  LIG1        0.1232
@<TRIPOS>BOND
     1    43    41    1
     2    13    12    1
     3    42    41   ar
     4    42    38   ar
     5    41    40   ar
     6    12    11    3
     7    25    24    1
     8    24    23    3
     9    21    19    1
    10    40    48    1
    11    40    39   ar
    12    38    29    1
    13    38    39   ar
    14    11     3    1
    15    23    16    1
    16    30    29   ar
    17    30    26   ar
    18    48    49    3
    19    29    28   ar
    20     9     7    1
    21    39    44    1
    22    49    50    1
    23    16    15   ar
    24    16    17   ar
    25    19    15    1
    26    19    20    1
    27    19    22    1
    28    26    17    1
    29    26    27   ar
    30    15    14   ar
    31    28    35    1
    32    28    27   ar
    33    17    18   ar
    34     8     7    1
    35     3     4   ar
    36     3     2   ar
    37    35    36    3
    38    27    31    1
    39     7     2    1
    40     7    10    1
    41    33    31    1
    42    36    37    1
    43    14    18   ar
    44    14     4    1
    45     4     5   ar
    46     2     1   ar
    47    44    46    1
    48    44    45    1
    49    44    47    1
    50    31    34    1
    51    31    32    1
    52     1     5   ar
    53     1     6    1
