@<TRIPOS>MOLECULE
mol_data/opt/m06hf/geoms/mol2/5ie5ie-5ie5ie.out
 50 53 0 0 0
SMALL
GASTEIGER

@<TRIPOS>ATOM
      1 C          -1.1472   -1.4371    2.3352 C.ar    1  LIG1       -0.0196
      2 C          -0.7551   -1.7271    1.0682 C.ar    1  LIG1       -0.0274
      3 C          -0.4705   -0.5230    0.3211 C.ar    1  LIG1        0.0428
      4 C          -0.6450    0.6236    1.0545 C.ar    1  LIG1        0.0418
      5 S          -1.1670    0.2559    2.6572 S.2     1  LIG1       -0.0946
      6 H          -1.4289   -2.1357    3.1072 H       1  LIG1        0.0696
      7 C          -0.6343   -3.1078    0.4701 C.3     1  LIG1       -0.0380
      8 H           0.3896   -3.2808    0.1362 H       1  LIG1        0.0278
      9 H          -1.2927   -3.1970   -0.3948 H       1  LIG1        0.0278
     10 H          -0.9039   -3.8638    1.2060 H       1  LIG1        0.0278
     11 C          -0.0859   -0.5393   -1.0627 C.1     1  LIG1       -0.0682
     12 C           0.2327   -0.5834   -2.2215 C.1     1  LIG1       -0.1139
     13 H           0.5096   -0.6107   -3.2502 H       1  LIG1        0.1232
     14 C          -0.4451    2.0094    0.6148 C.ar    1  LIG1        0.0318
     15 C           0.6680    2.5482    0.0350 C.ar    1  LIG1       -0.0191
     16 C           0.4712    3.9449   -0.2712 C.ar    1  LIG1        0.0435
     17 C          -0.7588    4.4219    0.1069 C.ar    1  LIG1        0.0424
     18 S          -1.7127    3.1746    0.8186 S.2     1  LIG1       -0.0856
     19 C           1.9646    1.8321   -0.2448 C.3     1  LIG1       -0.0374
     20 H           2.7976    2.4537    0.0848 H       1  LIG1        0.0278
     21 H           2.0663    1.6512   -1.3160 H       1  LIG1        0.0278
     22 H           1.9866    0.8761    0.2757 H       1  LIG1        0.0278
     23 C           1.4680    4.7416   -0.9313 C.1     1  LIG1       -0.0682
     24 C           2.3200    5.3824   -1.4878 C.1     1  LIG1       -0.1139
     25 H           3.0661    5.9535   -1.9904 H       1  LIG1        0.1232
     26 C          -1.2698    5.7901   -0.0384 C.ar    1  LIG1        0.0318
     27 C          -0.6882    6.9450    0.4014 C.ar    1  LIG1       -0.0191
     28 C          -1.4819    8.0960    0.0442 C.ar    1  LIG1        0.0435
     29 C          -2.6381    7.7789   -0.6241 C.ar    1  LIG1        0.0424
     30 S          -2.7743    6.0776   -0.8520 S.2     1  LIG1       -0.0856
     31 C           0.5981    7.0560    1.1796 C.3     1  LIG1       -0.0374
     32 H           0.4549    7.7381    2.0182 H       1  LIG1        0.0278
     33 H           1.3874    7.4513    0.5387 H       1  LIG1        0.0278
     34 H           0.9017    6.0773    1.5479 H       1  LIG1        0.0278
     35 C          -1.0778    9.4410    0.3445 C.1     1  LIG1       -0.0682
     36 C          -0.7162   10.5574    0.6060 C.1     1  LIG1       -0.1139
     37 H          -0.3999   11.5506    0.8261 H       1  LIG1        0.1232
     38 C          -3.6711    8.7041   -1.1057 C.ar    1  LIG1        0.0312
     39 C          -4.3487    9.6420   -0.3808 C.ar    1  LIG1       -0.0198
     40 C          -5.2763   10.3717   -1.2150 C.ar    1  LIG1        0.0352
     41 C          -5.2718    9.9556   -2.5148 C.ar    1  LIG1       -0.0081
     42 S          -4.1499    8.6906   -2.7752 S.2     1  LIG1       -0.0946
     43 H          -5.8772   10.3387   -3.3199 H       1  LIG1        0.0706
     44 C          -4.2148    9.8982    1.0989 C.3     1  LIG1       -0.0374
     45 H          -5.2082    9.9607    1.5443 H       1  LIG1        0.0278
     46 H          -3.6974   10.8441    1.2659 H       1  LIG1        0.0278
     47 H          -3.6472    9.0992    1.5727 H       1  LIG1        0.0278
     48 C          -6.1265   11.4165   -0.7108 C.1     1  LIG1       -0.0688
     49 C          -6.8311   12.2840   -0.2689 C.1     1  LIG1       -0.1139
     50 H          -7.4582   13.0541    0.1159 H       1  LIG1        0.1232
@<TRIPOS>BOND
     1    43    41    1
     2    13    12    1
     3    42    41   ar
     4    42    38   ar
     5    41    40   ar
     6    12    11    3
     7    25    24    1
     8    24    23    3
     9    21    19    1
    10    40    48    1
    11    40    39   ar
    12    38    29    1
    13    38    39   ar
    14    11     3    1
    15    23    16    1
    16    30    29   ar
    17    30    26   ar
    18    48    49    3
    19    29    28   ar
    20     9     7    1
    21    39    44    1
    22    16    15   ar
    23    16    17   ar
    24    49    50    1
    25    19    15    1
    26    19    20    1
    27    19    22    1
    28    26    17    1
    29    26    27   ar
    30    15    14   ar
    31    28    35    1
    32    28    27   ar
    33    17    18   ar
    34     8     7    1
    35     3     4   ar
    36     3     2   ar
    37    35    36    3
    38    27    31    1
    39     7     2    1
    40     7    10    1
    41    33    31    1
    42    36    37    1
    43    14    18   ar
    44    14     4    1
    45     4     5   ar
    46     2     1   ar
    47    44    46    1
    48    44    45    1
    49    44    47    1
    50    31    34    1
    51    31    32    1
    52     1     5   ar
    53     1     6    1
