@<TRIPOS>MOLECULE
mol_data/opt/m06hf/geoms/mol2/5ie5ie5ie5ie.out
 50 53 0 0 0
SMALL
GASTEIGER

@<TRIPOS>ATOM
      1 C          -1.1771   -1.4307    2.3370 C.ar    1  LIG1       -0.0196
      2 C          -0.7777   -1.7253    1.0733 C.ar    1  LIG1       -0.0274
      3 C          -0.4855   -0.5241    0.3244 C.ar    1  LIG1        0.0428
      4 C          -0.6619    0.6251    1.0534 C.ar    1  LIG1        0.0418
      5 S          -1.1949    0.2634    2.6538 S.2     1  LIG1       -0.0946
      6 H          -1.4653   -2.1264    3.1092 H       1  LIG1        0.0696
      7 C          -0.6564   -3.1081    0.4800 C.3     1  LIG1       -0.0380
      8 H           0.3691   -3.2845    0.1530 H       1  LIG1        0.0278
      9 H          -1.3096   -3.1983   -0.3887 H       1  LIG1        0.0278
     10 H          -0.9323   -3.8612    1.2164 H       1  LIG1        0.0278
     11 C          -0.0923   -0.5454   -1.0568 C.1     1  LIG1       -0.0682
     12 C           0.2336   -0.5937   -2.2135 C.1     1  LIG1       -0.1139
     13 H           0.5169   -0.6248   -3.2403 H       1  LIG1        0.1232
     14 C          -0.4559    2.0091    0.6108 C.ar    1  LIG1        0.0318
     15 C           0.6621    2.5435    0.0365 C.ar    1  LIG1       -0.0191
     16 C           0.4706    3.9398   -0.2750 C.ar    1  LIG1        0.0435
     17 C          -0.7607    4.4208    0.0940 C.ar    1  LIG1        0.0424
     18 S          -1.7220    3.1778    0.8033 S.2     1  LIG1       -0.0856
     19 C           1.9586    1.8235   -0.2330 C.3     1  LIG1       -0.0374
     20 H           2.7912    2.4442    0.0998 H       1  LIG1        0.0278
     21 H           2.0666    1.6390   -1.3030 H       1  LIG1        0.0278
     22 H           1.9752    0.8691    0.2907 H       1  LIG1        0.0278
     23 C           1.4735    4.7322   -0.9311 C.1     1  LIG1       -0.0682
     24 C           2.3304    5.3693   -1.4841 C.1     1  LIG1       -0.1139
     25 H           3.0811    5.9371   -1.9836 H       1  LIG1        0.1232
     26 C          -1.2674    5.7898   -0.0585 C.ar    1  LIG1        0.0318
     27 C          -0.6858    6.9445    0.3816 C.ar    1  LIG1       -0.0191
     28 C          -1.4744    8.0964    0.0161 C.ar    1  LIG1        0.0435
     29 C          -2.6272    7.7801   -0.6585 C.ar    1  LIG1        0.0424
     30 S          -2.7660    6.0786   -0.8824 S.2     1  LIG1       -0.0856
     31 C           0.5958    7.0548    1.1677 C.3     1  LIG1       -0.0374
     32 H           0.4490    7.7396    2.0034 H       1  LIG1        0.0278
     33 H           1.3902    7.4463    0.5306 H       1  LIG1        0.0278
     34 H           0.8948    6.0765    1.5407 H       1  LIG1        0.0278
     35 C          -1.0690    9.4414    0.3151 C.1     1  LIG1       -0.0682
     36 C          -0.7064   10.5576    0.5757 C.1     1  LIG1       -0.1139
     37 H          -0.3890   11.5506    0.7950 H       1  LIG1        0.1232
     38 C          -3.6549    8.7064   -1.1492 C.ar    1  LIG1        0.0312
     39 C          -4.3347    9.6480   -0.4313 C.ar    1  LIG1       -0.0198
     40 C          -5.2553   10.3775   -1.2734 C.ar    1  LIG1        0.0352
     41 C          -5.2437    9.9577   -2.5720 C.ar    1  LIG1       -0.0081
     42 S          -4.1233    8.6891   -2.8217 S.2     1  LIG1       -0.0946
     43 H          -5.8431   10.3398   -3.3819 H       1  LIG1        0.0706
     44 C          -4.2094    9.9083    1.0484 C.3     1  LIG1       -0.0374
     45 H          -5.2055    9.9745    1.4874 H       1  LIG1        0.0278
     46 H          -3.6907   10.8534    1.2159 H       1  LIG1        0.0278
     47 H          -3.6468    9.1092    1.5280 H       1  LIG1        0.0278
     48 C          -6.1061   11.4259   -0.7776 C.1     1  LIG1       -0.0688
     49 C          -6.8114   12.2964   -0.3427 C.1     1  LIG1       -0.1139
     50 H          -7.4390   13.0691    0.0360 H       1  LIG1        0.1232
@<TRIPOS>BOND
     1    43    41    1
     2    13    12    1
     3    42    41   ar
     4    42    38   ar
     5    41    40   ar
     6    12    11    3
     7    25    24    1
     8    24    23    3
     9    21    19    1
    10    40    48    1
    11    40    39   ar
    12    38    29    1
    13    38    39   ar
    14    11     3    1
    15    23    16    1
    16    30    29   ar
    17    30    26   ar
    18    48    49    3
    19    29    28   ar
    20    39    44    1
    21     9     7    1
    22    49    50    1
    23    16    15   ar
    24    16    17   ar
    25    19    15    1
    26    19    20    1
    27    19    22    1
    28    26    17    1
    29    26    27   ar
    30    28    35    1
    31    28    27   ar
    32    15    14   ar
    33    17    18   ar
    34     8     7    1
    35    35    36    3
    36     3     4   ar
    37     3     2   ar
    38    27    31    1
    39     7     2    1
    40     7    10    1
    41    33    31    1
    42    36    37    1
    43    14    18   ar
    44    14     4    1
    45    44    46    1
    46    44    45    1
    47    44    47    1
    48     4     5   ar
    49     2     1   ar
    50    31    34    1
    51    31    32    1
    52     1     5   ar
    53     1     6    1
