@<TRIPOS>MOLECULE
mol_data/opt/m06hf/geoms/mol2/5ie5ie-5ie5ie-.out
 50 53 0 0 0
SMALL
GASTEIGER

@<TRIPOS>ATOM
      1 C          -1.1498   -1.4320    2.3438 C.ar    1  LIG1       -0.0196
      2 C          -0.7585   -1.7250    1.0772 C.ar    1  LIG1       -0.0274
      3 C          -0.4735   -0.5228    0.3272 C.ar    1  LIG1        0.0428
      4 C          -0.6471    0.6256    1.0582 C.ar    1  LIG1        0.0418
      5 S          -1.1685    0.2618    2.6619 S.2     1  LIG1       -0.0946
      6 H          -1.4315   -2.1287    3.1175 H       1  LIG1        0.0696
      7 C          -0.6387   -3.1072    0.4821 C.3     1  LIG1       -0.0380
      8 H           0.3848   -3.2815    0.1480 H       1  LIG1        0.0278
      9 H          -1.2977   -3.1980   -0.3822 H       1  LIG1        0.0278
     10 H          -0.9084   -3.8613    1.2198 H       1  LIG1        0.0278
     11 C          -0.0897   -0.5424   -1.0567 C.1     1  LIG1       -0.0682
     12 C           0.2283   -0.5893   -2.2155 C.1     1  LIG1       -0.1139
     13 H           0.5047   -0.6191   -3.2443 H       1  LIG1        0.1232
     14 C          -0.4466    2.0102    0.6152 C.ar    1  LIG1        0.0318
     15 C           0.6665    2.5471    0.0337 C.ar    1  LIG1       -0.0191
     16 C           0.4704    3.9432   -0.2755 C.ar    1  LIG1        0.0435
     17 C          -0.7591    4.4218    0.1022 C.ar    1  LIG1        0.0424
     18 S          -1.7134    3.1766    0.8171 S.2     1  LIG1       -0.0856
     19 C           1.9625    1.8296   -0.2452 C.3     1  LIG1       -0.0374
     20 H           2.7962    2.4515    0.0824 H       1  LIG1        0.0278
     21 H           2.0635    1.6461   -1.3160 H       1  LIG1        0.0278
     22 H           1.9844    0.8748    0.2777 H       1  LIG1        0.0278
     23 C           1.4674    4.7379   -0.9379 C.1     1  LIG1       -0.0682
     24 C           2.3195    5.3770   -1.4962 C.1     1  LIG1       -0.1139
     25 H           3.0657    5.9465   -2.0004 H       1  LIG1        0.1232
     26 C          -1.2693    5.7900   -0.0459 C.ar    1  LIG1        0.0318
     27 C          -0.6868    6.9455    0.3911 C.ar    1  LIG1       -0.0191
     28 C          -1.4800    8.0962    0.0317 C.ar    1  LIG1        0.0435
     29 C          -2.6368    7.7783   -0.6353 C.ar    1  LIG1        0.0424
     30 S          -2.7741    6.0766   -0.8593 S.2     1  LIG1       -0.0856
     31 C           0.5999    7.0574    1.1685 C.3     1  LIG1       -0.0374
     32 H           0.4575    7.7414    2.0057 H       1  LIG1        0.0278
     33 H           1.3892    7.4509    0.5263 H       1  LIG1        0.0278
     34 H           0.9032    6.0794    1.5387 H       1  LIG1        0.0278
     35 C          -1.0749    9.4416    0.3289 C.1     1  LIG1       -0.0682
     36 C          -0.7126   10.5583    0.5878 C.1     1  LIG1       -0.1139
     37 H          -0.3955   11.5518    0.8056 H       1  LIG1        0.1232
     38 C          -3.6694    8.7031   -1.1183 C.ar    1  LIG1        0.0312
     39 C          -4.3460    9.6430   -0.3952 C.ar    1  LIG1       -0.0198
     40 C          -5.2736   10.3714   -1.2305 C.ar    1  LIG1        0.0352
     41 C          -5.2700    9.9524   -2.5295 C.ar    1  LIG1       -0.0081
     42 S          -4.1491    8.6861   -2.7876 S.2     1  LIG1       -0.0946
     43 H          -5.8757   10.3340   -3.3350 H       1  LIG1        0.0706
     44 C          -4.2112    9.9024    1.0838 C.3     1  LIG1       -0.0374
     45 H          -5.2044    9.9665    1.5296 H       1  LIG1        0.0278
     46 H          -3.6932   10.8484    1.2485 H       1  LIG1        0.0278
     47 H          -3.6438    9.1041    1.5591 H       1  LIG1        0.0278
     48 C          -6.1229   11.4179   -0.7282 C.1     1  LIG1       -0.0688
     49 C          -6.8268   12.2868   -0.2880 C.1     1  LIG1       -0.1139
     50 H          -7.4532   13.0582    0.0955 H       1  LIG1        0.1232
@<TRIPOS>BOND
     1    43    41    1
     2    13    12    1
     3    42    41   ar
     4    42    38   ar
     5    41    40   ar
     6    12    11    3
     7    25    24    1
     8    24    23    3
     9    21    19    1
    10    40    48    1
    11    40    39   ar
    12    38    29    1
    13    38    39   ar
    14    11     3    1
    15    23    16    1
    16    30    29   ar
    17    30    26   ar
    18    48    49    3
    19    29    28   ar
    20    39    44    1
    21     9     7    1
    22    49    50    1
    23    16    15   ar
    24    16    17   ar
    25    19    15    1
    26    19    20    1
    27    19    22    1
    28    26    17    1
    29    26    27   ar
    30    28    35    1
    31    28    27   ar
    32    15    14   ar
    33    17    18   ar
    34     8     7    1
    35     3     4   ar
    36     3     2   ar
    37    35    36    3
    38    27    31    1
    39     7     2    1
    40     7    10    1
    41    33    31    1
    42    36    37    1
    43    14    18   ar
    44    14     4    1
    45     4     5   ar
    46     2     1   ar
    47    44    46    1
    48    44    45    1
    49    44    47    1
    50    31    34    1
    51    31    32    1
    52     1     5   ar
    53     1     6    1
