@<TRIPOS>MOLECULE
mol_data/opt/m06hf/geoms/mol2/5if.out
 13 13 0 0 0
SMALL
GASTEIGER

@<TRIPOS>ATOM
      1 C          -2.1344   -1.6553    0.0978 C.ar    1  LIG1       -0.0179
      2 C          -0.7800   -1.6583    0.0236 C.ar    1  LIG1       -0.0020
      3 C          -0.2688   -0.3111   -0.0417 C.ar    1  LIG1        0.1267
      4 C          -1.2323    0.6443   -0.0152 C.ar    1  LIG1        0.0174
      5 S          -2.8042   -0.0665    0.0909 S.2     1  LIG1       -0.1011
      6 H          -2.7850   -2.5136    0.1572 H       1  LIG1        0.0697
      7 H          -1.1103    1.7146   -0.0515 H       1  LIG1        0.0730
      8 C           0.1270   -2.8639    0.0071 C.3     1  LIG1       -0.0357
      9 H           0.8149   -2.8232    0.8523 H       1  LIG1        0.0279
     10 H           0.7175   -2.8724   -0.9096 H       1  LIG1        0.0279
     11 H          -0.4613   -3.7785    0.0651 H       1  LIG1        0.0279
     12 O           1.0799   -0.1343   -0.1206 O.3     1  LIG1       -0.5060
     13 H           1.2953    0.8034   -0.1582 H       1  LIG1        0.2922
@<TRIPOS>BOND
     1    10     8    1
     2    13    12    1
     3    12     3    1
     4     7     4    1
     5     3     4   ar
     6     3     2   ar
     7     4     5   ar
     8     8     2    1
     9     8    11    1
    10     8     9    1
    11     2     1   ar
    12     5     1   ar
    13     1     6    1
