@<TRIPOS>MOLECULE
mol_data/opt/m06hf/geoms/mol2/5if5if-.out
 24 25 0 0 0
SMALL
GASTEIGER

@<TRIPOS>ATOM
      1 C          -1.8854   -1.7642    0.8637 C.ar    1  LIG1       -0.0172
      2 C          -0.7680   -1.7985    0.0938 C.ar    1  LIG1       -0.0014
      3 C          -0.3694   -0.4663   -0.2774 C.ar    1  LIG1        0.1350
      4 C          -1.1746    0.5161    0.2193 C.ar    1  LIG1        0.0679
      5 S          -2.4637   -0.1650    1.1614 S.2     1  LIG1       -0.0921
      6 H          -2.4107   -2.6090    1.2805 H       1  LIG1        0.0697
      7 C          -0.0112   -3.0222   -0.3598 C.3     1  LIG1       -0.0357
      8 H           1.0051   -3.0013    0.0352 H       1  LIG1        0.0279
      9 H           0.0499   -3.0364   -1.4485 H       1  LIG1        0.0279
     10 H          -0.5119   -3.9254   -0.0146 H       1  LIG1        0.0279
     11 O           0.7130   -0.2753   -1.0715 O.3     1  LIG1       -0.5053
     12 H           0.7493    0.6557   -1.3316 H       1  LIG1        0.2922
     13 C          -0.9887    1.9495   -0.0194 C.ar    1  LIG1        0.0359
     14 C           0.1546    2.6697    0.1894 C.ar    1  LIG1        0.0064
     15 C          -0.0166    4.0412   -0.2193 C.ar    1  LIG1        0.1273
     16 C          -1.2533    4.3222   -0.7023 C.ar    1  LIG1        0.0180
     17 S          -2.2581    2.9169   -0.7046 S.2     1  LIG1       -0.0920
     18 H          -1.6289    5.2710   -1.0504 H       1  LIG1        0.0730
     19 C           1.4313    2.1700    0.8228 C.3     1  LIG1       -0.0351
     20 H           1.7403    2.8705    1.5990 H       1  LIG1        0.0279
     21 H           2.2363    2.1111    0.0871 H       1  LIG1        0.0279
     22 H           1.2688    1.1850    1.2584 H       1  LIG1        0.0279
     23 O           1.0338    4.8944   -0.0696 O.3     1  LIG1       -0.5060
     24 H           0.7828    5.7878   -0.3257 H       1  LIG1        0.2922
@<TRIPOS>BOND
     1     9     7    1
     2    12    11    1
     3    11     3    1
     4    18    16    1
     5    17    16   ar
     6    17    13   ar
     7    16    15   ar
     8     7    10    1
     9     7     8    1
    10     7     2    1
    11    24    23    1
    12     3     2   ar
    13     3     4   ar
    14    15    23    1
    15    15    14   ar
    16    13    14   ar
    17    13     4    1
    18    21    19    1
    19     2     1   ar
    20    14    19    1
    21     4     5   ar
    22    19    22    1
    23    19    20    1
    24     1     5   ar
    25     1     6    1
