@<TRIPOS>MOLECULE
mol_data/opt/m06hf/geoms/mol2/5if5if-5if-.out
 35 37 0 0 0
SMALL
GASTEIGER

@<TRIPOS>ATOM
      1 C          -1.4697   -1.7831    1.4540 C.ar    1  LIG1       -0.0172
      2 C          -0.7477   -1.8590    0.3076 C.ar    1  LIG1       -0.0014
      3 C          -0.4620   -0.5423   -0.1984 C.ar    1  LIG1        0.1350
      4 C          -0.9564    0.4702    0.5708 C.ar    1  LIG1        0.0679
      5 S          -1.8085   -0.1616    1.9437 S.2     1  LIG1       -0.0921
      6 H          -1.8290   -2.6084    2.0486 H       1  LIG1        0.0697
      7 C          -0.2902   -3.1099   -0.4012 C.3     1  LIG1       -0.0357
      8 H           0.7986   -3.1279   -0.4620 H       1  LIG1        0.0279
      9 H          -0.6859   -3.1245   -1.4172 H       1  LIG1        0.0279
     10 H          -0.6346   -3.9943    0.1323 H       1  LIG1        0.0279
     11 O           0.2282   -0.3956   -1.3560 O.3     1  LIG1       -0.5053
     12 H           0.2023    0.5336   -1.6232 H       1  LIG1        0.2922
     13 C          -0.8039    1.8972    0.2777 C.ar    1  LIG1        0.0365
     14 C           0.3679    2.5485    0.0024 C.ar    1  LIG1        0.0070
     15 C           0.1237    3.9327   -0.2989 C.ar    1  LIG1        0.1356
     16 C          -1.1881    4.3006   -0.2247 C.ar    1  LIG1        0.0685
     17 S          -2.1879    2.9415    0.1816 S.2     1  LIG1       -0.0831
     18 C           1.7599    1.9647    0.0507 C.3     1  LIG1       -0.0351
     19 H           2.4066    2.6352    0.6170 H       1  LIG1        0.0279
     20 H           2.1784    1.8670   -0.9533 H       1  LIG1        0.0279
     21 H           1.7359    0.9853    0.5267 H       1  LIG1        0.0279
     22 O           1.1569    4.7509   -0.6145 O.3     1  LIG1       -0.5053
     23 H           0.8047    5.6106   -0.8846 H       1  LIG1        0.2922
     24 C          -1.6880    5.6600   -0.4453 C.ar    1  LIG1        0.0359
     25 C          -1.2427    6.7994    0.1665 C.ar    1  LIG1        0.0064
     26 C          -1.9308    7.9596   -0.3397 C.ar    1  LIG1        0.1273
     27 C          -2.8654    7.6783   -1.2837 C.ar    1  LIG1        0.0180
     28 S          -2.9270    5.9860   -1.6179 S.2     1  LIG1       -0.0920
     29 H          -3.5169    8.3678   -1.7966 H       1  LIG1        0.0730
     30 C          -0.2248    6.8917    1.2782 C.3     1  LIG1       -0.0351
     31 H          -0.6321    7.5074    2.0804 H       1  LIG1        0.0279
     32 H           0.6937    7.3667    0.9271 H       1  LIG1        0.0279
     33 H           0.0059    5.8977    1.6594 H       1  LIG1        0.0279
     34 O          -1.6020    9.1774    0.1712 O.3     1  LIG1       -0.5060
     35 H          -2.1602    9.8656   -0.2050 H       1  LIG1        0.2922
@<TRIPOS>BOND
     1    29    27    1
     2    12    11    1
     3    28    27   ar
     4    28    24   ar
     5     9     7    1
     6    11     3    1
     7    27    26   ar
     8    20    18    1
     9    23    22    1
    10    22    15    1
    11     8     7    1
    12    24    16    1
    13    24    25   ar
    14     7    10    1
    15     7     2    1
    16    26    25   ar
    17    26    34    1
    18    15    16   ar
    19    15    14   ar
    20    16    17   ar
    21    35    34    1
    22     3     2   ar
    23     3     4   ar
    24    14    18    1
    25    14    13   ar
    26    18    21    1
    27    18    19    1
    28    25    30    1
    29    17    13   ar
    30    13     4    1
    31     2     1   ar
    32     4     5   ar
    33    32    30    1
    34    30    33    1
    35    30    31    1
    36     1     5   ar
    37     1     6    1
