@<TRIPOS>MOLECULE
mol_data/opt/m06hf/geoms/mol2/5if5if-5if5if.out
 46 49 0 0 0
SMALL
GASTEIGER

@<TRIPOS>ATOM
      1 C          -0.8679   -1.6804    2.0567 C.ar    1  LIG1       -0.0172
      2 C          -0.6330   -1.8522    0.7306 C.ar    1  LIG1       -0.0014
      3 C          -0.5398   -0.5796    0.0648 C.ar    1  LIG1        0.1350
      4 C          -0.6912    0.4948    0.8912 C.ar    1  LIG1        0.0679
      5 S          -0.9737   -0.0230    2.5247 S.2     1  LIG1       -0.0921
      6 H          -0.9879   -2.4546    2.7983 H       1  LIG1        0.0697
      7 C          -0.4934   -3.1592   -0.0099 C.3     1  LIG1       -0.0357
      8 H           0.4780   -3.2051   -0.5033 H       1  LIG1        0.0279
      9 H          -1.2658   -3.2357   -0.7761 H       1  LIG1        0.0279
     10 H          -0.5863   -3.9963    0.6802 H       1  LIG1        0.0279
     11 O          -0.3341   -0.5274   -1.2739 O.3     1  LIG1       -0.5053
     12 H          -0.4245    0.3888   -1.5705 H       1  LIG1        0.2922
     13 C          -0.6311    1.8947    0.4659 C.ar    1  LIG1        0.0365
     14 C           0.3670    2.4779   -0.2676 C.ar    1  LIG1        0.0070
     15 C           0.0570    3.8526   -0.5500 C.ar    1  LIG1        0.1356
     16 C          -1.1235    4.2823   -0.0170 C.ar    1  LIG1        0.0685
     17 S          -1.9302    2.9927    0.8170 S.2     1  LIG1       -0.0831
     18 C           1.6660    1.8392   -0.6982 C.3     1  LIG1       -0.0351
     19 H           2.4883    2.5139   -0.4603 H       1  LIG1        0.0279
     20 H           1.6782    1.6657   -1.7765 H       1  LIG1        0.0279
     21 H           1.8050    0.8913   -0.1801 H       1  LIG1        0.0279
     22 O           0.9156    4.6010   -1.2836 O.3     1  LIG1       -0.5053
     23 H           0.5068    5.4576   -1.4713 H       1  LIG1        0.2922
     24 C          -1.6319    5.6526   -0.1145 C.ar    1  LIG1        0.0365
     25 C          -0.9403    6.7923    0.1992 C.ar    1  LIG1        0.0070
     26 C          -1.7341    7.9598   -0.0684 C.ar    1  LIG1        0.1356
     27 C          -2.9861    7.6906   -0.5390 C.ar    1  LIG1        0.0685
     28 S          -3.2290    5.9825   -0.7116 S.2     1  LIG1       -0.0831
     29 C           0.4390    6.8754    0.8087 C.3     1  LIG1       -0.0351
     30 H           0.4161    7.5813    1.6388 H       1  LIG1        0.0279
     31 H           1.1691    7.2386    0.0821 H       1  LIG1        0.0279
     32 H           0.7470    5.8943    1.1679 H       1  LIG1        0.0279
     33 O          -1.2219    9.1933    0.1569 O.3     1  LIG1       -0.5053
     34 H          -1.8496    9.8569   -0.1614 H       1  LIG1        0.2922
     35 C          -3.9932    8.7083   -0.8494 C.ar    1  LIG1        0.0359
     36 C          -4.4167    9.7081   -0.0182 C.ar    1  LIG1        0.0064
     37 C          -5.3692   10.5615   -0.6818 C.ar    1  LIG1        0.1273
     38 C          -5.6470   10.1897   -1.9577 C.ar    1  LIG1        0.0180
     39 S          -4.7361    8.7966   -2.4162 S.2     1  LIG1       -0.0920
     40 H          -6.3344   10.6523   -2.6476 H       1  LIG1        0.0730
     41 C          -4.0291    9.9056    1.4281 C.3     1  LIG1       -0.0351
     42 H          -4.9318   10.0691    2.0166 H       1  LIG1        0.0279
     43 H          -3.3907   10.7839    1.5453 H       1  LIG1        0.0279
     44 H          -3.5018    9.0268    1.7970 H       1  LIG1        0.0279
     45 O          -5.8928   11.6073    0.0142 O.3     1  LIG1       -0.5060
     46 H          -6.5147   12.1006   -0.5307 H       1  LIG1        0.2922
@<TRIPOS>BOND
     1    40    38    1
     2    39    38   ar
     3    39    35   ar
     4    38    37   ar
     5    20    18    1
     6    12    11    1
     7    23    22    1
     8    22    15    1
     9    11     3    1
    10    35    27    1
    11    35    36   ar
    12     9     7    1
    13    28    27   ar
    14    28    24   ar
    15    18    19    1
    16    18    14    1
    17    18    21    1
    18    37    36   ar
    19    37    45    1
    20    15    14   ar
    21    15    16   ar
    22    27    26   ar
    23    46    45    1
    24     8     7    1
    25    14    13   ar
    26    34    33    1
    27    24    16    1
    28    24    25   ar
    29    26    33    1
    30    26    25   ar
    31    36    41    1
    32    16    17   ar
    33     7    10    1
    34     7     2    1
    35     3     2   ar
    36     3     4   ar
    37    31    29    1
    38    25    29    1
    39    13    17   ar
    40    13     4    1
    41     2     1   ar
    42    29    32    1
    43    29    30    1
    44     4     5   ar
    45    41    43    1
    46    41    44    1
    47    41    42    1
    48     1     5   ar
    49     1     6    1
