@<TRIPOS>MOLECULE
mol_data/opt/m06hf/geoms/mol2/5if5if-5if5if-.out
 46 49 0 0 0
SMALL
GASTEIGER

@<TRIPOS>ATOM
      1 C          -0.8536   -1.6746    2.0651 C.ar    1  LIG1       -0.0172
      2 C          -0.6225   -1.8492    0.7388 C.ar    1  LIG1       -0.0014
      3 C          -0.5328   -0.5780    0.0697 C.ar    1  LIG1        0.1350
      4 C          -0.6830    0.4981    0.8941 C.ar    1  LIG1        0.0679
      5 S          -0.9601   -0.0162    2.5295 S.2     1  LIG1       -0.0921
      6 H          -0.9705   -2.4472    2.8089 H       1  LIG1        0.0697
      7 C          -0.4836   -3.1578    0.0009 C.3     1  LIG1       -0.0357
      8 H           0.4862   -3.2035   -0.4956 H       1  LIG1        0.0279
      9 H          -1.2584   -3.2371   -0.7626 H       1  LIG1        0.0279
     10 H          -0.5731   -3.9934    0.6933 H       1  LIG1        0.0279
     11 O          -0.3312   -0.5287   -1.2697 O.3     1  LIG1       -0.5053
     12 H          -0.4233    0.3866   -1.5682 H       1  LIG1        0.2922
     13 C          -0.6260    1.8971    0.4653 C.ar    1  LIG1        0.0365
     14 C           0.3692    2.4797   -0.2727 C.ar    1  LIG1        0.0070
     15 C           0.0565    3.8534   -0.5574 C.ar    1  LIG1        0.1356
     16 C          -1.1229    4.2829   -0.0219 C.ar    1  LIG1        0.0685
     17 S          -1.9254    2.9942    0.8177 S.2     1  LIG1       -0.0831
     18 C           1.6677    1.8417   -0.7057 C.3     1  LIG1       -0.0351
     19 H           2.4898    2.5178   -0.4716 H       1  LIG1        0.0279
     20 H           1.6770    1.6662   -1.7838 H       1  LIG1        0.0279
     21 H           1.8092    0.8950   -0.1862 H       1  LIG1        0.0279
     22 O           0.9119    4.6011   -1.2956 O.3     1  LIG1       -0.5053
     23 H           0.5013    5.4567   -1.4841 H       1  LIG1        0.2922
     24 C          -1.6334    5.6523   -0.1211 C.ar    1  LIG1        0.0365
     25 C          -0.9423    6.7936    0.1876 C.ar    1  LIG1        0.0070
     26 C          -1.7385    7.9594   -0.0804 C.ar    1  LIG1        0.1356
     27 C          -2.9915    7.6875   -0.5463 C.ar    1  LIG1        0.0685
     28 S          -3.2327    5.9786   -0.7141 S.2     1  LIG1       -0.0831
     29 C           0.4388    6.8800    0.7925 C.3     1  LIG1       -0.0351
     30 H           0.4176    7.5880    1.6210 H       1  LIG1        0.0279
     31 H           1.1662    7.2423    0.0628 H       1  LIG1        0.0279
     32 H           0.7491    5.9002    1.1533 H       1  LIG1        0.0279
     33 O          -1.2272    9.1942    0.1404 O.3     1  LIG1       -0.5053
     34 H          -1.8567    9.8561   -0.1777 H       1  LIG1        0.2922
     35 C          -4.0010    8.7030   -0.8561 C.ar    1  LIG1        0.0359
     36 C          -4.4233    9.7043   -0.0260 C.ar    1  LIG1        0.0064
     37 C          -5.3791   10.5548   -0.6887 C.ar    1  LIG1        0.1273
     38 C          -5.6603   10.1795   -1.9628 C.ar    1  LIG1        0.0180
     39 S          -4.7489    8.7866   -2.4208 S.2     1  LIG1       -0.0920
     40 H          -6.3505   10.6395   -2.6518 H       1  LIG1        0.0730
     41 C          -4.0315    9.9058    1.4185 C.3     1  LIG1       -0.0351
     42 H          -4.9325   10.0696    2.0096 H       1  LIG1        0.0279
     43 H          -3.3939   10.7852    1.5316 H       1  LIG1        0.0279
     44 H          -3.5018    9.0286    1.7880 H       1  LIG1        0.0279
     45 O          -5.9019   11.6016    0.0064 O.3     1  LIG1       -0.5060
     46 H          -6.5261   12.0926   -0.5378 H       1  LIG1        0.2922
@<TRIPOS>BOND
     1    40    38    1
     2    39    38   ar
     3    39    35   ar
     4    38    37   ar
     5    20    18    1
     6    12    11    1
     7    23    22    1
     8    22    15    1
     9    11     3    1
    10    35    27    1
    11    35    36   ar
    12     9     7    1
    13    28    27   ar
    14    28    24   ar
    15    18    19    1
    16    18    14    1
    17    18    21    1
    18    37    36   ar
    19    37    45    1
    20    15    14   ar
    21    15    16   ar
    22    27    26   ar
    23    46    45    1
    24     8     7    1
    25    14    13   ar
    26    34    33    1
    27    24    16    1
    28    24    25   ar
    29    26    33    1
    30    26    25   ar
    31    36    41    1
    32    16    17   ar
    33     7    10    1
    34     7     2    1
    35    31    29    1
    36     3     2   ar
    37     3     4   ar
    38    25    29    1
    39    13    17   ar
    40    13     4    1
    41     2     1   ar
    42    29    32    1
    43    29    30    1
    44     4     5   ar
    45    41    43    1
    46    41    44    1
    47    41    42    1
    48     1     5   ar
    49     1     6    1
