@<TRIPOS>MOLECULE
mol_data/opt/m06hf/geoms/mol2/5if5if.out
 24 25 0 0 0
SMALL
GASTEIGER

@<TRIPOS>ATOM
      1 C          -1.8968   -1.7664    0.8430 C.ar    1  LIG1       -0.0172
      2 C          -0.7701   -1.7986    0.0868 C.ar    1  LIG1       -0.0014
      3 C          -0.3665   -0.4653   -0.2751 C.ar    1  LIG1        0.1350
      4 C          -1.1774    0.5157    0.2148 C.ar    1  LIG1        0.0679
      5 S          -2.4782   -0.1680    1.1388 S.2     1  LIG1       -0.0921
      6 H          -2.4274   -2.6124    1.2506 H       1  LIG1        0.0697
      7 C          -0.0081   -3.0211   -0.3615 C.3     1  LIG1       -0.0357
      8 H           1.0033   -3.0018    0.0459 H       1  LIG1        0.0279
      9 H           0.0663   -3.0318   -1.4494 H       1  LIG1        0.0279
     10 H          -0.5133   -3.9252   -0.0253 H       1  LIG1        0.0279
     11 O           0.7257   -0.2722   -1.0552 O.3     1  LIG1       -0.5053
     12 H           0.7655    0.6597   -1.3117 H       1  LIG1        0.2922
     13 C          -0.9881    1.9498   -0.0169 C.ar    1  LIG1        0.0359
     14 C           0.1527    2.6690    0.2083 C.ar    1  LIG1        0.0064
     15 C          -0.0130    4.0418   -0.1979 C.ar    1  LIG1        0.1273
     16 C          -1.2435    4.3249   -0.6953 C.ar    1  LIG1        0.0180
     17 S          -2.2487    2.9199   -0.7146 S.2     1  LIG1       -0.0920
     18 H          -1.6145    5.2749   -1.0449 H       1  LIG1        0.0730
     19 C           1.4213    2.1667    0.8558 C.3     1  LIG1       -0.0351
     20 H           1.7208    2.8645    1.6382 H       1  LIG1        0.0279
     21 H           2.2355    2.1102    0.1300 H       1  LIG1        0.0279
     22 H           1.2533    1.1803    1.2860 H       1  LIG1        0.0279
     23 O           1.0357    4.8942   -0.0324 O.3     1  LIG1       -0.5060
     24 H           0.7882    5.7885   -0.2887 H       1  LIG1        0.2922
@<TRIPOS>BOND
     1     9     7    1
     2    12    11    1
     3    11     3    1
     4    18    16    1
     5    17    16   ar
     6    17    13   ar
     7    16    15   ar
     8     7    10    1
     9     7     8    1
    10     7     2    1
    11    24    23    1
    12     3     2   ar
    13     3     4   ar
    14    15    23    1
    15    15    14   ar
    16    13    14   ar
    17    13     4    1
    18     2     1   ar
    19    21    19    1
    20    14    19    1
    21     4     5   ar
    22     1     5   ar
    23     1     6    1
    24    19    22    1
    25    19    20    1
