@<TRIPOS>MOLECULE
mol_data/opt/m06hf/geoms/mol2/5if5if-5if-5if.out
 46 49 0 0 0
SMALL
GASTEIGER

@<TRIPOS>ATOM
      1 C          -0.8775   -1.6809    2.0548 C.ar    1  LIG1       -0.0172
      2 C          -0.6334   -1.8519    0.7303 C.ar    1  LIG1       -0.0014
      3 C          -0.5364   -0.5788    0.0658 C.ar    1  LIG1        0.1350
      4 C          -0.6942    0.4950    0.8917 C.ar    1  LIG1        0.0679
      5 S          -0.9877   -0.0238    2.5229 S.2     1  LIG1       -0.0921
      6 H          -1.0022   -2.4556    2.7952 H       1  LIG1        0.0697
      7 C          -0.4878   -3.1584   -0.0099 C.3     1  LIG1       -0.0357
      8 H           0.4870   -3.2033   -0.4967 H       1  LIG1        0.0279
      9 H          -1.2549   -3.2351   -0.7813 H       1  LIG1        0.0279
     10 H          -0.5847   -3.9959    0.6792 H       1  LIG1        0.0279
     11 O          -0.3215   -0.5258   -1.2714 O.3     1  LIG1       -0.5053
     12 H          -0.4102    0.3905   -1.5681 H       1  LIG1        0.2922
     13 C          -0.6322    1.8952    0.4676 C.ar    1  LIG1        0.0365
     14 C           0.3705    2.4794   -0.2588 C.ar    1  LIG1        0.0070
     15 C           0.0615    3.8541   -0.5427 C.ar    1  LIG1        0.1356
     16 C          -1.1230    4.2827   -0.0177 C.ar    1  LIG1        0.0685
     17 S          -1.9345    2.9921    0.8102 S.2     1  LIG1       -0.0831
     18 C           1.6729    1.8418   -0.6807 C.3     1  LIG1       -0.0351
     19 H           2.4931    2.5169   -0.4366 H       1  LIG1        0.0279
     20 H           1.6928    1.6693   -1.7591 H       1  LIG1        0.0279
     21 H           1.8089    0.8937   -0.1624 H       1  LIG1        0.0279
     22 O           0.9245    4.6034   -1.2700 O.3     1  LIG1       -0.5053
     23 H           0.5164    5.4598   -1.4602 H       1  LIG1        0.2922
     24 C          -1.6317    5.6526   -0.1179 C.ar    1  LIG1        0.0365
     25 C          -0.9431    6.7926    0.2010 C.ar    1  LIG1        0.0070
     26 C          -1.7359    7.9597   -0.0715 C.ar    1  LIG1        0.1356
     27 C          -2.9844    7.6899   -0.5507 C.ar    1  LIG1        0.0685
     28 S          -3.2249    5.9817   -0.7258 S.2     1  LIG1       -0.0831
     29 C           0.4319    6.8765    0.8199 C.3     1  LIG1       -0.0351
     30 H           0.4029    7.5820    1.6502 H       1  LIG1        0.0279
     31 H           1.1668    7.2404    0.0985 H       1  LIG1        0.0279
     32 H           0.7381    5.8954    1.1809 H       1  LIG1        0.0279
     33 O          -1.2261    9.1935    0.1580 O.3     1  LIG1       -0.5053
     34 H          -1.8521    9.8568   -0.1644 H       1  LIG1        0.2922
     35 C          -3.9901    8.7070   -0.8675 C.ar    1  LIG1        0.0359
     36 C          -4.4200    9.7060   -0.0388 C.ar    1  LIG1        0.0064
     37 C          -5.3687   10.5591   -0.7085 C.ar    1  LIG1        0.1273
     38 C          -5.6374   10.1877   -1.9864 C.ar    1  LIG1        0.0180
     39 S          -4.7223    8.7955   -2.4394 S.2     1  LIG1       -0.0920
     40 H          -6.3204   10.6501   -2.6809 H       1  LIG1        0.0730
     41 C          -4.0426    9.9031    1.4102 C.3     1  LIG1       -0.0351
     42 H          -4.9494   10.0657    1.9927 H       1  LIG1        0.0279
     43 H          -3.4057   10.7819    1.5322 H       1  LIG1        0.0279
     44 H          -3.5171    9.0246    1.7823 H       1  LIG1        0.0279
     45 O          -5.8978   11.6041   -0.0156 O.3     1  LIG1       -0.5060
     46 H          -6.5163   12.0972   -0.5645 H       1  LIG1        0.2922
@<TRIPOS>BOND
     1    40    38    1
     2    39    38   ar
     3    39    35   ar
     4    38    37   ar
     5    20    18    1
     6    12    11    1
     7    23    22    1
     8    11     3    1
     9    22    15    1
    10    35    27    1
    11    35    36   ar
    12     9     7    1
    13    28    27   ar
    14    28    24   ar
    15    37    36   ar
    16    37    45    1
    17    18    19    1
    18    18    14    1
    19    18    21    1
    20    46    45    1
    21    27    26   ar
    22    15    14   ar
    23    15    16   ar
    24     8     7    1
    25    14    13   ar
    26    34    33    1
    27    24    16    1
    28    24    25   ar
    29    26    33    1
    30    26    25   ar
    31    36    41    1
    32    16    17   ar
    33     7    10    1
    34     7     2    1
    35     3     2   ar
    36     3     4   ar
    37    31    29    1
    38    25    29    1
    39    13    17   ar
    40    13     4    1
    41     2     1   ar
    42    29    32    1
    43    29    30    1
    44     4     5   ar
    45    41    43    1
    46    41    44    1
    47    41    42    1
    48     1     5   ar
    49     1     6    1
