@<TRIPOS>MOLECULE
mol_data/opt/m06hf/geoms/mol2/5if5if-5if.out
 35 37 0 0 0
SMALL
GASTEIGER

@<TRIPOS>ATOM
      1 C          -1.4628   -1.7747    1.4793 C.ar    1  LIG1       -0.0172
      2 C          -0.7509   -1.8571    0.3270 C.ar    1  LIG1       -0.0014
      3 C          -0.4679   -0.5434   -0.1879 C.ar    1  LIG1        0.1350
      4 C          -0.9544    0.4735    0.5805 C.ar    1  LIG1        0.0679
      5 S          -1.7953   -0.1503    1.9639 S.2     1  LIG1       -0.0921
      6 H          -1.8179   -2.5966    2.0811 H       1  LIG1        0.0697
      7 C          -0.3011   -3.1122   -0.3795 C.3     1  LIG1       -0.0357
      8 H           0.7871   -3.1319   -0.4497 H       1  LIG1        0.0279
      9 H          -0.7056   -3.1311   -1.3920 H       1  LIG1        0.0279
     10 H          -0.6420   -3.9934    0.1613 H       1  LIG1        0.0279
     11 O           0.2123   -0.4032   -1.3522 O.3     1  LIG1       -0.5053
     12 H           0.1851    0.5246   -1.6239 H       1  LIG1        0.2922
     13 C          -0.8028    1.8989    0.2790 C.ar    1  LIG1        0.0365
     14 C           0.3674    2.5473   -0.0098 C.ar    1  LIG1        0.0070
     15 C           0.1223    3.9304   -0.3158 C.ar    1  LIG1        0.1356
     16 C          -1.1884    4.3002   -0.2320 C.ar    1  LIG1        0.0685
     17 S          -2.1863    2.9445    0.1898 S.2     1  LIG1       -0.0831
     18 C           1.7590    1.9620    0.0294 C.3     1  LIG1       -0.0351
     19 H           2.4115    2.6345    0.5866 H       1  LIG1        0.0279
     20 H           2.1687    1.8587   -0.9777 H       1  LIG1        0.0279
     21 H           1.7380    0.9851    0.5105 H       1  LIG1        0.0279
     22 O           1.1537    4.7456   -0.6444 O.3     1  LIG1       -0.5053
     23 H           0.8003    5.6045   -0.9156 H       1  LIG1        0.2922
     24 C          -1.6885    5.6592   -0.4551 C.ar    1  LIG1        0.0359
     25 C          -1.2366    6.8010    0.1472 C.ar    1  LIG1        0.0064
     26 C          -1.9277    7.9595   -0.3588 C.ar    1  LIG1        0.1273
     27 C          -2.8707    7.6747   -1.2933 C.ar    1  LIG1        0.0180
     28 S          -2.9372    5.9809   -1.6185 S.2     1  LIG1       -0.0920
     29 H          -3.5258    8.3625   -1.8040 H       1  LIG1        0.0730
     30 C          -0.2090    6.8975    1.2496 C.3     1  LIG1       -0.0351
     31 H          -0.6089    7.5171    2.0526 H       1  LIG1        0.0279
     32 H           0.7067    7.3703    0.8884 H       1  LIG1        0.0279
     33 H           0.0243    5.9052    1.6332 H       1  LIG1        0.0279
     34 O          -1.5930    9.1795    0.1433 O.3     1  LIG1       -0.5060
     35 H          -2.1536    9.8664   -0.2316 H       1  LIG1        0.2922
@<TRIPOS>BOND
     1    29    27    1
     2    12    11    1
     3    28    27   ar
     4    28    24   ar
     5     9     7    1
     6    11     3    1
     7    27    26   ar
     8    20    18    1
     9    23    22    1
    10    22    15    1
    11    24    16    1
    12    24    25   ar
    13     8     7    1
    14     7    10    1
    15     7     2    1
    16    26    34    1
    17    26    25   ar
    18    15    16   ar
    19    15    14   ar
    20    16    17   ar
    21    35    34    1
    22     3     2   ar
    23     3     4   ar
    24    14    18    1
    25    14    13   ar
    26    18    21    1
    27    18    19    1
    28    25    30    1
    29    17    13   ar
    30    13     4    1
    31     2     1   ar
    32     4     5   ar
    33    32    30    1
    34    30    33    1
    35    30    31    1
    36     1     5   ar
    37     1     6    1
