@<TRIPOS>MOLECULE
mol_data/opt/m06hf/geoms/mol2/5if5if5if-5if.out
 46 49 0 0 0
SMALL
GASTEIGER

@<TRIPOS>ATOM
      1 C          -0.8937   -1.6743    2.0629 C.ar    1  LIG1       -0.0172
      2 C          -0.6401   -1.8497    0.7407 C.ar    1  LIG1       -0.0014
      3 C          -0.5381   -0.5788    0.0728 C.ar    1  LIG1        0.1350
      4 C          -0.7016    0.4977    0.8940 C.ar    1  LIG1        0.0679
      5 S          -1.0069   -0.0156    2.5247 S.2     1  LIG1       -0.0921
      6 H          -1.0238   -2.4464    2.8049 H       1  LIG1        0.0697
      7 C          -0.4895   -3.1586    0.0059 C.3     1  LIG1       -0.0357
      8 H           0.4887   -3.2055   -0.4736 H       1  LIG1        0.0279
      9 H          -1.2510   -3.2376   -0.7709 H       1  LIG1        0.0279
     10 H          -0.5917   -3.9939    0.6970 H       1  LIG1        0.0279
     11 O          -0.3136   -0.5303   -1.2631 O.3     1  LIG1       -0.5053
     12 H          -0.4001    0.3850   -1.5635 H       1  LIG1        0.2922
     13 C          -0.6361    1.8965    0.4656 C.ar    1  LIG1        0.0365
     14 C           0.3719    2.4781   -0.2554 C.ar    1  LIG1        0.0070
     15 C           0.0653    3.8519   -0.5460 C.ar    1  LIG1        0.1356
     16 C          -1.1228    4.2825   -0.0310 C.ar    1  LIG1        0.0685
     17 S          -1.9405    2.9948    0.7953 S.2     1  LIG1       -0.0831
     18 C           1.6772    1.8388   -0.6659 C.3     1  LIG1       -0.0351
     19 H           2.4957    2.5146   -0.4183 H       1  LIG1        0.0279
     20 H           1.7047    1.6625   -1.7435 H       1  LIG1        0.0279
     21 H           1.8092    0.8925   -0.1433 H       1  LIG1        0.0279
     22 O           0.9338    4.5986   -1.2696 O.3     1  LIG1       -0.5053
     23 H           0.5272    5.4545   -1.4654 H       1  LIG1        0.2922
     24 C          -1.6304    5.6523   -0.1394 C.ar    1  LIG1        0.0365
     25 C          -0.9439    6.7932    0.1808 C.ar    1  LIG1        0.0070
     26 C          -1.7344    7.9595   -0.1012 C.ar    1  LIG1        0.1356
     27 C          -2.9794    7.6884   -0.5886 C.ar    1  LIG1        0.0685
     28 S          -3.2191    5.9797   -0.7599 S.2     1  LIG1       -0.0831
     29 C           0.4267    6.8787    0.8094 C.3     1  LIG1       -0.0351
     30 H           0.3918    7.5869    1.6372 H       1  LIG1        0.0279
     31 H           1.1668    7.2401    0.0922 H       1  LIG1        0.0279
     32 H           0.7300    5.8987    1.1758 H       1  LIG1        0.0279
     33 O          -1.2260    9.1939    0.1279 O.3     1  LIG1       -0.5053
     34 H          -1.8494    9.8563   -0.2012 H       1  LIG1        0.2922
     35 C          -3.9826    8.7046   -0.9161 C.ar    1  LIG1        0.0359
     36 C          -4.4183    9.7065   -0.0938 C.ar    1  LIG1        0.0064
     37 C          -5.3618   10.5576   -0.7731 C.ar    1  LIG1        0.1273
     38 C          -5.6214   10.1821   -2.0518 C.ar    1  LIG1        0.0180
     39 S          -4.7033    8.7882   -2.4935 S.2     1  LIG1       -0.0920
     40 H          -6.2992   10.6423   -2.7526 H       1  LIG1        0.0730
     41 C          -4.0513    9.9083    1.3572 C.3     1  LIG1       -0.0351
     42 H          -4.9623   10.0730    1.9326 H       1  LIG1        0.0279
     43 H          -3.4150   10.7872    1.4810 H       1  LIG1        0.0279
     44 H          -3.5288    9.0308    1.7361 H       1  LIG1        0.0279
     45 O          -5.8957   11.6050   -0.0875 O.3     1  LIG1       -0.5060
     46 H          -6.5101   12.0964   -0.6425 H       1  LIG1        0.2922
@<TRIPOS>BOND
     1    40    38    1
     2    39    38   ar
     3    39    35   ar
     4    38    37   ar
     5    20    18    1
     6    12    11    1
     7    23    22    1
     8    22    15    1
     9    11     3    1
    10    35    27    1
    11    35    36   ar
    12    37    36   ar
    13    37    45    1
    14     9     7    1
    15    28    27   ar
    16    28    24   ar
    17    18    19    1
    18    18    14    1
    19    18    21    1
    20    46    45    1
    21    27    26   ar
    22    15    14   ar
    23    15    16   ar
    24     8     7    1
    25    14    13   ar
    26    34    33    1
    27    24    16    1
    28    24    25   ar
    29    26    33    1
    30    26    25   ar
    31    36    41    1
    32    16    17   ar
    33     7    10    1
    34     7     2    1
    35     3     2   ar
    36     3     4   ar
    37    31    29    1
    38    25    29    1
    39    13    17   ar
    40    13     4    1
    41     2     1   ar
    42    29    32    1
    43    29    30    1
    44     4     5   ar
    45    41    43    1
    46    41    44    1
    47    41    42    1
    48     1     5   ar
    49     1     6    1
