@<TRIPOS>MOLECULE
mol_data/opt/m06hf/geoms/mol2/5if5if5if-.out
 35 37 0 0 0
SMALL
GASTEIGER

@<TRIPOS>ATOM
      1 C          -1.4822   -1.7794    1.4536 C.ar    1  LIG1       -0.0172
      2 C          -0.7498   -1.8581    0.3140 C.ar    1  LIG1       -0.0014
      3 C          -0.4597   -0.5428   -0.1928 C.ar    1  LIG1        0.1350
      4 C          -0.9611    0.4716    0.5692 C.ar    1  LIG1        0.0679
      5 S          -1.8257   -0.1566    1.9360 S.2     1  LIG1       -0.0921
      6 H          -1.8468   -2.6032    2.0471 H       1  LIG1        0.0697
      7 C          -0.2857   -3.1109   -0.3873 C.3     1  LIG1       -0.0357
      8 H           0.8036   -3.1290   -0.4379 H       1  LIG1        0.0279
      9 H          -0.6720   -3.1280   -1.4069 H       1  LIG1        0.0279
     10 H          -0.6351   -3.9939    0.1452 H       1  LIG1        0.0279
     11 O           0.2410   -0.3990   -1.3444 O.3     1  LIG1       -0.5053
     12 H           0.2174    0.5295   -1.6144 H       1  LIG1        0.2922
     13 C          -0.8062    1.8979    0.2738 C.ar    1  LIG1        0.0365
     14 C           0.3680    2.5486    0.0074 C.ar    1  LIG1        0.0070
     15 C           0.1264    3.9320   -0.2997 C.ar    1  LIG1        0.1356
     16 C          -1.1861    4.2999   -0.2384 C.ar    1  LIG1        0.0685
     17 S          -2.1894    2.9418    0.1624 S.2     1  LIG1       -0.0831
     18 C           1.7595    1.9651    0.0699 C.3     1  LIG1       -0.0351
     19 H           2.4011    2.6372    0.6402 H       1  LIG1        0.0279
     20 H           2.1871    1.8647   -0.9300 H       1  LIG1        0.0279
     21 H           1.7313    0.9871    0.5483 H       1  LIG1        0.0279
     22 O           1.1623    4.7495   -0.6080 O.3     1  LIG1       -0.5053
     23 H           0.8125    5.6085   -0.8835 H       1  LIG1        0.2922
     24 C          -1.6841    5.6587   -0.4671 C.ar    1  LIG1        0.0359
     25 C          -1.2445    6.7997    0.1457 C.ar    1  LIG1        0.0064
     26 C          -1.9282    7.9585   -0.3697 C.ar    1  LIG1        0.1273
     27 C          -2.8541    7.6746   -1.3215 C.ar    1  LIG1        0.0180
     28 S          -2.9124    5.9814   -1.6518 S.2     1  LIG1       -0.0920
     29 H          -3.5010    8.3627   -1.8420 H       1  LIG1        0.0730
     30 C          -0.2368    6.8950    1.2664 C.3     1  LIG1       -0.0351
     31 H          -0.6516    7.5124    2.0635 H       1  LIG1        0.0279
     32 H           0.6846    7.3697    0.9226 H       1  LIG1        0.0279
     33 H          -0.0091    5.9021    1.6519 H       1  LIG1        0.0279
     34 O          -1.6042    9.1777    0.1410 O.3     1  LIG1       -0.5060
     35 H          -2.1590    9.8647   -0.2421 H       1  LIG1        0.2922
@<TRIPOS>BOND
     1    29    27    1
     2    28    27   ar
     3    28    24   ar
     4    12    11    1
     5     9     7    1
     6    11     3    1
     7    27    26   ar
     8    20    18    1
     9    23    22    1
    10    22    15    1
    11    24    16    1
    12    24    25   ar
    13     8     7    1
    14     7    10    1
    15     7     2    1
    16    26    34    1
    17    26    25   ar
    18    15    16   ar
    19    15    14   ar
    20    35    34    1
    21    16    17   ar
    22     3     2   ar
    23     3     4   ar
    24    14    18    1
    25    14    13   ar
    26    18    21    1
    27    18    19    1
    28    25    30    1
    29    17    13   ar
    30    13     4    1
    31     2     1   ar
    32     4     5   ar
    33    32    30    1
    34    30    33    1
    35    30    31    1
    36     1     5   ar
    37     1     6    1
