@<TRIPOS>MOLECULE
mol_data/opt/m06hf/geoms/mol2/5ig.out
 13 13 0 0 0
SMALL
GASTEIGER

@<TRIPOS>ATOM
      1 C          -2.1580   -1.6782    0.0899 C.ar    1  LIG1       -0.0204
      2 C          -0.8010   -1.6663    0.0222 C.ar    1  LIG1       -0.0303
      3 C          -0.2965   -0.3134   -0.0333 C.ar    1  LIG1        0.0147
      4 C          -1.2793    0.6242   -0.0057 C.ar    1  LIG1       -0.0109
      5 S          -2.8391   -0.0995    0.0883 S.2     1  LIG1       -0.1037
      6 H          -2.7976   -2.5453    0.1411 H       1  LIG1        0.0696
      7 H          -1.1748    1.6968   -0.0351 H       1  LIG1        0.0704
      8 C           0.0875   -2.8883    0.0056 C.3     1  LIG1       -0.0382
      9 H           0.7691   -2.8720    0.8583 H       1  LIG1        0.0278
     10 H           0.6812   -2.9119   -0.9103 H       1  LIG1        0.0278
     11 H          -0.5169   -3.7925    0.0561 H       1  LIG1        0.0278
     12 S           1.4538   -0.0283   -0.1267 S.3     1  LIG1       -0.1418
     13 H           1.3779    1.3066   -0.1530 H       1  LIG1        0.1071
@<TRIPOS>BOND
     1    10     8    1
     2    13    12    1
     3    12     3    1
     4     7     4    1
     5     3     4   ar
     6     3     2   ar
     7     4     5   ar
     8     8     2    1
     9     8    11    1
    10     8     9    1
    11     2     1   ar
    12     5     1   ar
    13     1     6    1
