@<TRIPOS>MOLECULE
mol_data/opt/m06hf/geoms/mol2/5ig5ig-5ig-.out
 35 37 0 0 0
SMALL
GASTEIGER

@<TRIPOS>ATOM
      1 C          -1.3046   -1.6541    1.7482 C.ar    1  LIG1       -0.0197
      2 C          -0.7815   -1.8416    0.5086 C.ar    1  LIG1       -0.0297
      3 C          -0.4972   -0.5801   -0.1322 C.ar    1  LIG1        0.0230
      4 C          -0.8060    0.5010    0.6439 C.ar    1  LIG1        0.0396
      5 S          -1.4616    0.0059    2.1701 S.2     1  LIG1       -0.0947
      6 H          -1.6125   -2.4202    2.4425 H       1  LIG1        0.0696
      7 C          -0.5364   -3.1797   -0.1475 C.3     1  LIG1       -0.0382
      8 H           0.5202   -3.2930   -0.3973 H       1  LIG1        0.0278
      9 H          -1.1185   -3.2580   -1.0676 H       1  LIG1        0.0278
     10 H          -0.8267   -3.9862    0.5241 H       1  LIG1        0.0278
     11 S           0.1535   -0.5348   -1.7777 S.3     1  LIG1       -0.1412
     12 H           0.0415    0.7936   -1.9142 H       1  LIG1        0.1071
     13 C          -0.6362    1.9197    0.2978 C.ar    1  LIG1        0.0315
     14 C           0.5430    2.5682    0.0537 C.ar    1  LIG1       -0.0214
     15 C           0.3206    3.9450   -0.3083 C.ar    1  LIG1        0.0236
     16 C          -0.9987    4.3003   -0.3048 C.ar    1  LIG1        0.0402
     17 S          -2.0095    2.9559    0.1096 S.2     1  LIG1       -0.0858
     18 C           1.9134    1.9448    0.1567 C.3     1  LIG1       -0.0375
     19 H           2.5354    2.5315    0.8353 H       1  LIG1        0.0278
     20 H           2.3965    1.9217   -0.8231 H       1  LIG1        0.0278
     21 H           1.8285    0.9259    0.5328 H       1  LIG1        0.0278
     22 S           1.6848    4.9869   -0.7321 S.3     1  LIG1       -0.1412
     23 H           0.9332    6.0675   -0.9816 H       1  LIG1        0.1071
     24 C          -1.5636    5.6221   -0.6119 C.ar    1  LIG1        0.0309
     25 C          -1.3829    6.7795    0.0939 C.ar    1  LIG1       -0.0220
     26 C          -2.0609    7.8867   -0.5346 C.ar    1  LIG1        0.0153
     27 C          -2.7294    7.5325   -1.6639 C.ar    1  LIG1       -0.0103
     28 S          -2.5469    5.8589   -2.0162 S.2     1  LIG1       -0.0947
     29 H          -3.3220    8.1633   -2.3071 H       1  LIG1        0.0704
     30 C          -0.5996    6.8998    1.3789 C.3     1  LIG1       -0.0376
     31 H          -1.2375    7.3108    2.1641 H       1  LIG1        0.0278
     32 H           0.2552    7.5665    1.2432 H       1  LIG1        0.0278
     33 H          -0.2392    5.9190    1.6873 H       1  LIG1        0.0278
     34 S          -1.9700    9.5019    0.1952 S.3     1  LIG1       -0.1418
     35 H          -2.6132   10.1326   -0.7908 H       1  LIG1        0.1071
@<TRIPOS>BOND
     1    29    27    1
     2    28    27   ar
     3    28    24   ar
     4    12    11    1
     5    11     3    1
     6    27    26   ar
     7     9     7    1
     8    23    22    1
     9    20    18    1
    10    35    34    1
    11    22    15    1
    12    24    16    1
    13    24    25   ar
    14    26    25   ar
    15    26    34    1
    16     8     7    1
    17    15    16   ar
    18    15    14   ar
    19    16    17   ar
    20     7     2    1
    21     7    10    1
    22     3     2   ar
    23     3     4   ar
    24    14    18    1
    25    14    13   ar
    26    25    30    1
    27    17    13   ar
    28    18    21    1
    29    18    19    1
    30    13     4    1
    31     2     1   ar
    32     4     5   ar
    33    32    30    1
    34    30    33    1
    35    30    31    1
    36     1     5   ar
    37     1     6    1
