@<TRIPOS>MOLECULE
mol_data/opt/m06hf/geoms/mol2/5ig5ig-.out
 24 25 0 0 0
SMALL
GASTEIGER

@<TRIPOS>ATOM
      1 C          -1.8158   -1.7448    0.9639 C.ar    1  LIG1       -0.0197
      2 C          -0.7758   -1.8372    0.0946 C.ar    1  LIG1       -0.0297
      3 C          -0.3609   -0.5317   -0.3605 C.ar    1  LIG1        0.0230
      4 C          -1.0921    0.4863    0.1826 C.ar    1  LIG1        0.0396
      5 S          -2.3062   -0.1232    1.2591 S.2     1  LIG1       -0.0947
      6 H          -2.3243   -2.5614    1.4520 H       1  LIG1        0.0696
      7 C          -0.1238   -3.1212   -0.3608 C.3     1  LIG1       -0.0382
      8 H           0.9313   -3.1299   -0.0811 H       1  LIG1        0.0278
      9 H          -0.1927   -3.2159   -1.4461 H       1  LIG1        0.0278
     10 H          -0.6170   -3.9759    0.0996 H       1  LIG1        0.0278
     11 S           0.9513   -0.3597   -1.5338 S.3     1  LIG1       -0.1412
     12 H           0.8201    0.9685   -1.6558 H       1  LIG1        0.1071
     13 C          -0.9335    1.9265   -0.0673 C.ar    1  LIG1        0.0309
     14 C           0.1348    2.7096    0.2717 C.ar    1  LIG1       -0.0220
     15 C          -0.0454    4.0666   -0.1828 C.ar    1  LIG1        0.0153
     16 C          -1.2251    4.2616   -0.8297 C.ar    1  LIG1       -0.0103
     17 S          -2.1494    2.8139   -0.9230 S.2     1  LIG1       -0.0947
     18 H          -1.6017    5.1784   -1.2541 H       1  LIG1        0.0704
     19 C           1.3461    2.2348    1.0370 C.3     1  LIG1       -0.0376
     20 H           1.4879    2.8505    1.9276 H       1  LIG1        0.0278
     21 H           2.2426    2.3096    0.4172 H       1  LIG1        0.0278
     22 H           1.2092    1.1962    1.3367 H       1  LIG1        0.0278
     23 S           1.2159    5.2781    0.1286 S.3     1  LIG1       -0.1418
     24 H           0.5745    6.2924   -0.4599 H       1  LIG1        0.1071
@<TRIPOS>BOND
     1    12    11    1
     2    11     3    1
     3     9     7    1
     4    18    16    1
     5    17    16   ar
     6    17    13   ar
     7    16    15   ar
     8    24    23    1
     9     7     8    1
    10     7     2    1
    11     7    10    1
    12     3     2   ar
    13     3     4   ar
    14    15    23    1
    15    15    14   ar
    16    13     4    1
    17    13    14   ar
    18     2     1   ar
    19     4     5   ar
    20    14    19    1
    21    21    19    1
    22     1     5   ar
    23     1     6    1
    24    19    22    1
    25    19    20    1
