@<TRIPOS>MOLECULE
mol_data/opt/m06hf/geoms/mol2/5ig5ig-5ig-5ig.out
 46 49 0 0 0
SMALL
GASTEIGER

@<TRIPOS>ATOM
      1 C          -0.6936   -1.4568    2.3485 C.ar    1  LIG1       -0.0197
      2 C          -0.8354   -1.7170    1.0225 C.ar    1  LIG1       -0.0297
      3 C          -0.7551   -0.5047    0.2429 C.ar    1  LIG1        0.0230
      4 C          -0.5482    0.6114    1.0017 C.ar    1  LIG1        0.0396
      5 S          -0.4590    0.2128    2.6864 S.2     1  LIG1       -0.0947
      6 H          -0.7168   -2.1740    3.1541 H       1  LIG1        0.0696
      7 C          -1.0625   -3.0805    0.4139 C.3     1  LIG1       -0.0382
      8 H          -0.2612   -3.3208   -0.2873 H       1  LIG1        0.0278
      9 H          -2.0105   -3.0980   -0.1271 H       1  LIG1        0.0278
     10 H          -1.0874   -3.8403    1.1936 H       1  LIG1        0.0278
     11 S          -0.9529   -0.5587   -1.5138 S.3     1  LIG1       -0.1412
     12 H          -0.9095    0.7693   -1.6831 H       1  LIG1        0.1071
     13 C          -0.4216    1.9978    0.5285 C.ar    1  LIG1        0.0315
     14 C           0.5679    2.5095   -0.2658 C.ar    1  LIG1       -0.0214
     15 C           0.3339    3.8991   -0.5665 C.ar    1  LIG1        0.0236
     16 C          -0.7987    4.3955    0.0165 C.ar    1  LIG1        0.0402
     17 S          -1.6238    3.1758    0.9252 S.2     1  LIG1       -0.0858
     18 C           1.7656    1.7389   -0.7657 C.3     1  LIG1       -0.0375
     19 H           2.6844    2.2369   -0.4498 H       1  LIG1        0.0278
     20 H           1.7568    1.6902   -1.8572 H       1  LIG1        0.0278
     21 H           1.7483    0.7263   -0.3645 H       1  LIG1        0.0278
     22 S           1.4427    4.7881   -1.6202 S.3     1  LIG1       -0.1412
     23 H           0.6986    5.9017   -1.6510 H       1  LIG1        0.1071
     24 C          -1.3240    5.7656   -0.0845 C.ar    1  LIG1        0.0315
     25 C          -0.7387    6.9103    0.3836 C.ar    1  LIG1       -0.0214
     26 C          -1.5287    8.0715    0.0610 C.ar    1  LIG1        0.0236
     27 C          -2.6775    7.7735   -0.6168 C.ar    1  LIG1        0.0402
     28 S          -2.8195    6.0729   -0.8973 S.2     1  LIG1       -0.0858
     29 C           0.5586    6.9704    1.1523 C.3     1  LIG1       -0.0375
     30 H           0.4066    7.5061    2.0914 H       1  LIG1        0.0278
     31 H           1.3210    7.4969    0.5736 H       1  LIG1        0.0278
     32 H           0.9102    5.9616    1.3666 H       1  LIG1        0.0278
     33 S          -0.9780    9.6889    0.5159 S.3     1  LIG1       -0.1412
     34 H          -2.0284   10.3187   -0.0248 H       1  LIG1        0.1071
     35 C          -3.7073    8.7182   -1.0764 C.ar    1  LIG1        0.0309
     36 C          -4.5543    9.4546   -0.2961 C.ar    1  LIG1       -0.0220
     37 C          -5.4077   10.2952   -1.1000 C.ar    1  LIG1        0.0153
     38 C          -5.1846   10.1615   -2.4344 C.ar    1  LIG1       -0.0103
     39 S          -3.9329    9.0285   -2.7637 S.2     1  LIG1       -0.0947
     40 H          -5.6876   10.6677   -3.2430 H       1  LIG1        0.0704
     41 C          -4.6155    9.3949    1.2109 C.3     1  LIG1       -0.0376
     42 H          -5.6335    9.1652    1.5312 H       1  LIG1        0.0278
     43 H          -4.3254   10.3558    1.6428 H       1  LIG1        0.0278
     44 H          -3.9397    8.6240    1.5793 H       1  LIG1        0.0278
     45 S          -6.5985   11.3505   -0.3125 S.3     1  LIG1       -0.1418
     46 H          -7.1543   11.7960   -1.4429 H       1  LIG1        0.1071
@<TRIPOS>BOND
     1    40    38    1
     2    39    38   ar
     3    39    35   ar
     4    38    37   ar
     5    20    18    1
     6    12    11    1
     7    23    22    1
     8    22    15    1
     9    11     3    1
    10    46    45    1
    11    37    45    1
    12    37    36   ar
    13    35    27    1
    14    35    36   ar
    15    28    27   ar
    16    28    24   ar
    17    18    19    1
    18    18    21    1
    19    18    14    1
    20    27    26   ar
    21    15    14   ar
    22    15    16   ar
    23    36    41    1
    24     8     7    1
    25    14    13   ar
    26     9     7    1
    27    24    16    1
    28    24    25   ar
    29    34    33    1
    30    16    17   ar
    31    26    25   ar
    32    26    33    1
    33     3     4   ar
    34     3     2   ar
    35    25    29    1
    36     7     2    1
    37     7    10    1
    38    13    17   ar
    39    13     4    1
    40    31    29    1
    41     4     5   ar
    42     2     1   ar
    43    29    32    1
    44    29    30    1
    45    41    42    1
    46    41    44    1
    47    41    43    1
    48     1     5   ar
    49     1     6    1
