@<TRIPOS>MOLECULE
mol_data/opt/m06hf/geoms/mol2/5ig5ig-5ig5ig-.out
 46 49 0 0 0
SMALL
GASTEIGER

@<TRIPOS>ATOM
      1 C          -0.6381   -1.4517    2.3395 C.ar    1  LIG1       -0.0197
      2 C          -0.8076   -1.7143    1.0174 C.ar    1  LIG1       -0.0297
      3 C          -0.7450   -0.5033    0.2342 C.ar    1  LIG1        0.0230
      4 C          -0.5231    0.6143    0.9865 C.ar    1  LIG1        0.0396
      5 S          -0.3979    0.2186    2.6696 S.2     1  LIG1       -0.0947
      6 H          -0.6437   -2.1676    3.1467 H       1  LIG1        0.0696
      7 C          -1.0465   -3.0791    0.4160 C.3     1  LIG1       -0.0382
      8 H          -0.2600   -3.3199   -0.3017 H       1  LIG1        0.0278
      9 H          -2.0057   -3.0982   -0.1048 H       1  LIG1        0.0278
     10 H          -1.0541   -3.8375    1.1973 H       1  LIG1        0.0278
     11 S          -0.9798   -0.5604   -1.5178 S.3     1  LIG1       -0.1412
     12 H          -0.9413    0.7673   -1.6902 H       1  LIG1        0.1071
     13 C          -0.4079    2.0000    0.5085 C.ar    1  LIG1        0.0315
     14 C           0.5643    2.5112   -0.3073 C.ar    1  LIG1       -0.0214
     15 C           0.3226    3.9000   -0.6056 C.ar    1  LIG1        0.0236
     16 C          -0.7980    4.3964   -0.0000 C.ar    1  LIG1        0.0402
     17 S          -1.6027    3.1775    0.9280 S.2     1  LIG1       -0.0858
     18 C           1.7519    1.7408   -0.8308 C.3     1  LIG1       -0.0375
     19 H           2.6767    2.2404   -0.5355 H       1  LIG1        0.0278
     20 H           1.7201    1.6898   -1.9218 H       1  LIG1        0.0278
     21 H           1.7442    0.7291   -0.4273 H       1  LIG1        0.0278
     22 S           1.4080    4.7881   -1.6841 S.3     1  LIG1       -0.1412
     23 H           0.6623    5.9009   -1.7014 H       1  LIG1        0.1071
     24 C          -1.3269    5.7657   -0.0925 C.ar    1  LIG1        0.0315
     25 C          -0.7330    6.9119    0.3607 C.ar    1  LIG1       -0.0214
     26 C          -1.5309    8.0716    0.0525 C.ar    1  LIG1        0.0236
     27 C          -2.6934    7.7711   -0.6001 C.ar    1  LIG1        0.0402
     28 S          -2.8395    6.0698   -0.8742 S.2     1  LIG1       -0.0858
     29 C           0.5802    6.9749    1.1017 C.3     1  LIG1       -0.0375
     30 H           0.4475    7.5123    2.0426 H       1  LIG1        0.0278
     31 H           1.3297    7.5010    0.5059 H       1  LIG1        0.0278
     32 H           0.9373    5.9669    1.3105 H       1  LIG1        0.0278
     33 S          -0.9724    9.6906    0.4924 S.3     1  LIG1       -0.1412
     34 H          -2.0352   10.3182   -0.0263 H       1  LIG1        0.1071
     35 C          -3.7337    8.7137   -1.0398 C.ar    1  LIG1        0.0309
     36 C          -4.5648    9.4509   -0.2432 C.ar    1  LIG1       -0.0220
     37 C          -5.4360   10.2889   -1.0307 C.ar    1  LIG1        0.0153
     38 C          -5.2411   10.1526   -2.3692 C.ar    1  LIG1       -0.0103
     39 S          -3.9954    9.0203   -2.7225 S.2     1  LIG1       -0.0947
     40 H          -5.7617   10.6565   -3.1679 H       1  LIG1        0.0704
     41 C          -4.5939    9.3944    1.2648 C.3     1  LIG1       -0.0376
     42 H          -5.6046    9.1642    1.6071 H       1  LIG1        0.0278
     43 H          -4.2959   10.3565    1.6884 H       1  LIG1        0.0278
     44 H          -3.9095    8.6251    1.6204 H       1  LIG1        0.0278
     45 S          -6.6109   11.3447   -0.2203 S.3     1  LIG1       -0.1418
     46 H          -7.1913   11.7869   -1.3395 H       1  LIG1        0.1071
@<TRIPOS>BOND
     1    40    38    1
     2    39    38   ar
     3    39    35   ar
     4    38    37   ar
     5    20    18    1
     6    23    22    1
     7    12    11    1
     8    22    15    1
     9    11     3    1
    10    46    45    1
    11    35    27    1
    12    35    36   ar
    13    37    36   ar
    14    37    45    1
    15    28    27   ar
    16    28    24   ar
    17    18    19    1
    18    18    21    1
    19    18    14    1
    20    15    14   ar
    21    15    16   ar
    22    27    26   ar
    23    14    13   ar
    24     8     7    1
    25    36    41    1
    26     9     7    1
    27    24    16    1
    28    24    25   ar
    29    34    33    1
    30    16    17   ar
    31    26    25   ar
    32    26    33    1
    33     3     4   ar
    34     3     2   ar
    35    25    29    1
    36     7     2    1
    37     7    10    1
    38    31    29    1
    39    13    17   ar
    40    13     4    1
    41     4     5   ar
    42     2     1   ar
    43    29    32    1
    44    29    30    1
    45    41    42    1
    46    41    44    1
    47    41    43    1
    48     1     5   ar
    49     1     6    1
