@<TRIPOS>MOLECULE
mol_data/opt/m06hf/geoms/mol2/5ig5ig-5ig5ig.out
 46 49 0 0 0
SMALL
GASTEIGER

@<TRIPOS>ATOM
      1 C          -0.6452   -1.4327    2.3965 C.ar    1  LIG1       -0.0197
      2 C          -0.8060   -1.7057    1.0753 C.ar    1  LIG1       -0.0297
      3 C          -0.7401   -0.5006    0.2832 C.ar    1  LIG1        0.0230
      4 C          -0.5244    0.6230    1.0283 C.ar    1  LIG1        0.0396
      5 S          -0.4092    0.2404    2.7152 S.2     1  LIG1       -0.0947
      6 H          -0.6549   -2.1424    3.2090 H       1  LIG1        0.0696
      7 C          -1.0392   -3.0753    0.4829 C.3     1  LIG1       -0.0382
      8 H          -0.2480   -3.3204   -0.2281 H       1  LIG1        0.0278
      9 H          -1.9952   -3.0998   -0.0435 H       1  LIG1        0.0278
     10 H          -1.0505   -3.8278    1.2699 H       1  LIG1        0.0278
     11 S          -0.9638   -0.5715   -1.4698 S.3     1  LIG1       -0.1412
     12 H          -0.9259    0.7550   -1.6520 H       1  LIG1        0.1071
     13 C          -0.4079    2.0052    0.5404 C.ar    1  LIG1        0.0315
     14 C           0.5685    2.5115   -0.2733 C.ar    1  LIG1       -0.0214
     15 C           0.3269    3.8976   -0.5836 C.ar    1  LIG1        0.0236
     16 C          -0.7981    4.3971    0.0114 C.ar    1  LIG1        0.0402
     17 S          -1.6068    3.1843    0.9438 S.2     1  LIG1       -0.0858
     18 C           1.7604    1.7388   -0.7836 C.3     1  LIG1       -0.0375
     19 H           2.6826    2.2416   -0.4859 H       1  LIG1        0.0278
     20 H           1.7357    1.6799   -1.8743 H       1  LIG1        0.0278
     21 H           1.7512    0.7299   -0.3728 H       1  LIG1        0.0278
     22 S           1.4178    4.7790   -1.6621 S.3     1  LIG1       -0.1412
     23 H           0.6707    5.8907   -1.6923 H       1  LIG1        0.1071
     24 C          -1.3280    5.7650   -0.0946 C.ar    1  LIG1        0.0315
     25 C          -0.7382    6.9153    0.3536 C.ar    1  LIG1       -0.0214
     26 C          -1.5354    8.0718    0.0318 C.ar    1  LIG1        0.0236
     27 C          -2.6936    7.7650   -0.6257 C.ar    1  LIG1        0.0402
     28 S          -2.8361    6.0615   -0.8879 S.2     1  LIG1       -0.0858
     29 C           0.5704    6.9855    1.1021 C.3     1  LIG1       -0.0375
     30 H           0.4314    7.5298    2.0381 H       1  LIG1        0.0278
     31 H           1.3229    7.5079    0.5070 H       1  LIG1        0.0278
     32 H           0.9274    5.9795    1.3207 H       1  LIG1        0.0278
     33 S          -0.9813    9.6945    0.4629 S.3     1  LIG1       -0.1412
     34 H          -2.0413   10.3172   -0.0671 H       1  LIG1        0.1071
     35 C          -3.7323    8.7031   -1.0787 C.ar    1  LIG1        0.0309
     36 C          -4.5689    9.4454   -0.2927 C.ar    1  LIG1       -0.0220
     37 C          -5.4362   10.2764   -1.0917 C.ar    1  LIG1        0.0153
     38 C          -5.2332   10.1302   -2.4279 C.ar    1  LIG1       -0.0103
     39 S          -3.9842    8.9966   -2.7652 S.2     1  LIG1       -0.0947
     40 H          -5.7495   10.6274   -3.2336 H       1  LIG1        0.0704
     41 C          -4.6069    9.4003    1.2155 C.3     1  LIG1       -0.0376
     42 H          -5.6195    9.1725    1.5536 H       1  LIG1        0.0278
     43 H          -4.3115   10.3657    1.6336 H       1  LIG1        0.0278
     44 H          -3.9244    8.6339    1.5810 H       1  LIG1        0.0278
     45 S          -6.6171   11.3371   -0.2963 S.3     1  LIG1       -0.1418
     46 H          -7.1912   11.7702   -1.4223 H       1  LIG1        0.1071
@<TRIPOS>BOND
     1    40    38    1
     2    39    38   ar
     3    39    35   ar
     4    38    37   ar
     5    20    18    1
     6    23    22    1
     7    22    15    1
     8    12    11    1
     9    11     3    1
    10    46    45    1
    11    37    45    1
    12    37    36   ar
    13    35    27    1
    14    35    36   ar
    15    28    27   ar
    16    28    24   ar
    17    18    19    1
    18    18    21    1
    19    18    14    1
    20    27    26   ar
    21    15    14   ar
    22    15    16   ar
    23    36    41    1
    24    14    13   ar
    25     8     7    1
    26    24    16    1
    27    24    25   ar
    28    34    33    1
    29     9     7    1
    30    16    17   ar
    31    26    25   ar
    32    26    33    1
    33     3     4   ar
    34     3     2   ar
    35    25    29    1
    36     7     2    1
    37     7    10    1
    38    31    29    1
    39    13    17   ar
    40    13     4    1
    41     4     5   ar
    42     2     1   ar
    43    29    32    1
    44    29    30    1
    45    41    42    1
    46    41    44    1
    47    41    43    1
    48     1     5   ar
    49     1     6    1
