@<TRIPOS>MOLECULE
mol_data/opt/m06hf/geoms/mol2/5ig5ig.out
 24 25 0 0 0
SMALL
GASTEIGER

@<TRIPOS>ATOM
      1 C          -1.8238   -1.7476    0.9513 C.ar    1  LIG1       -0.0197
      2 C          -0.7767   -1.8374    0.0902 C.ar    1  LIG1       -0.0297
      3 C          -0.3581   -0.5306   -0.3575 C.ar    1  LIG1        0.0230
      4 C          -1.0936    0.4858    0.1827 C.ar    1  LIG1        0.0396
      5 S          -2.3165   -0.1269    1.2474 S.2     1  LIG1       -0.0947
      6 H          -2.3364   -2.5656    1.4325 H       1  LIG1        0.0696
      7 C          -0.1211   -3.1200   -0.3638 C.3     1  LIG1       -0.0382
      8 H           0.9317   -3.1295   -0.0757 H       1  LIG1        0.0278
      9 H          -0.1814   -3.2116   -1.4499 H       1  LIG1        0.0278
     10 H          -0.6180   -3.9761    0.0901 H       1  LIG1        0.0278
     11 S           0.9635   -0.3551   -1.5197 S.3     1  LIG1       -0.1412
     12 H           0.8338    0.9735   -1.6383 H       1  LIG1        0.1071
     13 C          -0.9328    1.9267   -0.0615 C.ar    1  LIG1        0.0309
     14 C           0.1326    2.7087    0.2890 C.ar    1  LIG1       -0.0220
     15 C          -0.0436    4.0671   -0.1630 C.ar    1  LIG1        0.0153
     16 C          -1.2179    4.2643   -0.8190 C.ar    1  LIG1       -0.0103
     17 S          -2.1414    2.8168   -0.9248 S.2     1  LIG1       -0.0947
     18 H          -1.5909    5.1823   -1.2437 H       1  LIG1        0.0704
     19 C           1.3373    2.2315    1.0630 C.3     1  LIG1       -0.0376
     20 H           1.4718    2.8445    1.9565 H       1  LIG1        0.0278
     21 H           2.2390    2.3080    0.4509 H       1  LIG1        0.0278
     22 H           1.1978    1.1920    1.3584 H       1  LIG1        0.0278
     23 S           1.2151    5.2776    0.1625 S.3     1  LIG1       -0.1418
     24 H           0.5781    6.2938   -0.4274 H       1  LIG1        0.1071
@<TRIPOS>BOND
     1    12    11    1
     2    11     3    1
     3     9     7    1
     4    18    16    1
     5    17    16   ar
     6    17    13   ar
     7    16    15   ar
     8    24    23    1
     9     7     8    1
    10     7    10    1
    11     7     2    1
    12     3     2   ar
    13     3     4   ar
    14    15    23    1
    15    15    14   ar
    16    13     4    1
    17    13    14   ar
    18     2     1   ar
    19     4     5   ar
    20    14    19    1
    21    21    19    1
    22     1     5   ar
    23     1     6    1
    24    19    22    1
    25    19    20    1
