@<TRIPOS>MOLECULE
mol_data/opt/m06hf/geoms/mol2/5ig5ig5ig-.out
 35 37 0 0 0
SMALL
GASTEIGER

@<TRIPOS>ATOM
      1 C          -1.3904   -1.6509    1.7132 C.ar    1  LIG1       -0.0197
      2 C          -0.8317   -1.8405    0.4896 C.ar    1  LIG1       -0.0297
      3 C          -0.5190   -0.5803   -0.1403 C.ar    1  LIG1        0.0230
      4 C          -0.8430    0.5020    0.6279 C.ar    1  LIG1        0.0396
      5 S          -1.5477    0.0096    2.1330 S.2     1  LIG1       -0.0947
      6 H          -1.7246   -2.4157    2.3967 H       1  LIG1        0.0696
      7 C          -0.5769   -3.1795   -0.1610 C.3     1  LIG1       -0.0382
      8 H           0.4859   -3.3002   -0.3793 H       1  LIG1        0.0278
      9 H          -1.1317   -3.2522   -1.0982 H       1  LIG1        0.0278
     10 H          -0.8931   -3.9847    0.5003 H       1  LIG1        0.0278
     11 S           0.1810   -0.5374   -1.7655 S.3     1  LIG1       -0.1412
     12 H           0.0830    0.7919   -1.9031 H       1  LIG1        0.1071
     13 C          -0.6525    1.9199    0.2895 C.ar    1  LIG1        0.0315
     14 C           0.5383    2.5600    0.0819 C.ar    1  LIG1       -0.0214
     15 C           0.3370    3.9389   -0.2844 C.ar    1  LIG1        0.0236
     16 C          -0.9793    4.3040   -0.3199 C.ar    1  LIG1        0.0402
     17 S          -2.0118    2.9665    0.0618 S.2     1  LIG1       -0.0858
     18 C           1.9004    1.9263    0.2250 C.3     1  LIG1       -0.0375
     19 H           2.5060    2.5075    0.9229 H       1  LIG1        0.0278
     20 H           2.4124    1.9011   -0.7399 H       1  LIG1        0.0278
     21 H           1.7967    0.9076    0.5968 H       1  LIG1        0.0278
     22 S           1.7208    4.9714   -0.6652 S.3     1  LIG1       -0.1412
     23 H           0.9850    6.0578   -0.9354 H       1  LIG1        0.1071
     24 C          -1.5249    5.6303   -0.6417 C.ar    1  LIG1        0.0309
     25 C          -1.3571    6.7854    0.0711 C.ar    1  LIG1       -0.0220
     26 C          -2.0077    7.8984   -0.5757 C.ar    1  LIG1        0.0153
     27 C          -2.6445    7.5507   -1.7252 C.ar    1  LIG1       -0.0103
     28 S          -2.4637    5.8764   -2.0746 S.2     1  LIG1       -0.0947
     29 H          -3.2127    8.1868   -2.3850 H       1  LIG1        0.0704
     30 C          -0.6120    6.8980    1.3793 C.3     1  LIG1       -0.0376
     31 H          -1.2703    7.3125    2.1457 H       1  LIG1        0.0278
     32 H           0.2513    7.5586    1.2706 H       1  LIG1        0.0278
     33 H          -0.2682    5.9142    1.6968 H       1  LIG1        0.0278
     34 S          -1.9270    9.5118    0.1592 S.3     1  LIG1       -0.1418
     35 H          -2.5358   10.1486   -0.8446 H       1  LIG1        0.1071
@<TRIPOS>BOND
     1    29    27    1
     2    28    27   ar
     3    28    24   ar
     4    12    11    1
     5    11     3    1
     6    27    26   ar
     7     9     7    1
     8    23    22    1
     9    35    34    1
    10    20    18    1
    11    22    15    1
    12    24    16    1
    13    24    25   ar
    14    26    25   ar
    15    26    34    1
    16     8     7    1
    17    16    15   ar
    18    16    17   ar
    19    15    14   ar
    20     7     2    1
    21     7    10    1
    22     3     2   ar
    23     3     4   ar
    24    17    13   ar
    25    25    30    1
    26    14    18    1
    27    14    13   ar
    28    18    21    1
    29    18    19    1
    30    13     4    1
    31     2     1   ar
    32     4     5   ar
    33    32    30    1
    34    30    33    1
    35    30    31    1
    36     1     5   ar
    37     1     6    1
