@<TRIPOS>MOLECULE
mol_data/opt/m06hf/geoms/mol2/5ig5ig5ig-5ig.out
 46 49 0 0 0
SMALL
GASTEIGER

@<TRIPOS>ATOM
      1 C          -0.7328   -1.4253    2.4256 C.ar    1  LIG1       -0.0197
      2 C          -0.8535   -1.7029    1.1011 C.ar    1  LIG1       -0.0297
      3 C          -0.7602   -0.5009    0.3071 C.ar    1  LIG1        0.0230
      4 C          -0.5650    0.6250    1.0543 C.ar    1  LIG1        0.0396
      5 S          -0.5030    0.2485    2.7453 S.2     1  LIG1       -0.0947
      6 H          -0.7693   -2.1319    3.2401 H       1  LIG1        0.0696
      7 C          -1.0716   -3.0742    0.5069 C.3     1  LIG1       -0.0382
      8 H          -0.2594   -3.3238   -0.1785 H       1  LIG1        0.0278
      9 H          -2.0110   -3.0985   -0.0487 H       1  LIG1        0.0278
     10 H          -1.1089   -3.8236    1.2959 H       1  LIG1        0.0278
     11 S          -0.9298   -0.5778   -1.4517 S.3     1  LIG1       -0.1412
     12 H          -0.8832    0.7478   -1.6376 H       1  LIG1        0.1071
     13 C          -0.4304    2.0050    0.5651 C.ar    1  LIG1        0.0315
     14 C           0.5720    2.5062   -0.2197 C.ar    1  LIG1       -0.0214
     15 C           0.3432    3.8917   -0.5426 C.ar    1  LIG1        0.0236
     16 C          -0.7987    4.3957    0.0150 C.ar    1  LIG1        0.0402
     17 S          -1.6388    3.1881    0.9263 S.2     1  LIG1       -0.0858
     18 C           1.7774    1.7290   -0.6897 C.3     1  LIG1       -0.0375
     19 H           2.6911    2.2308   -0.3652 H       1  LIG1        0.0278
     20 H           1.7866    1.6662   -1.7805 H       1  LIG1        0.0278
     21 H           1.7531    0.7217   -0.2758 H       1  LIG1        0.0278
     22 S           1.4692    4.7667   -1.5898 S.3     1  LIG1       -0.1412
     23 H           0.7258    5.8797   -1.6476 H       1  LIG1        0.1071
     24 C          -1.3221    5.7643   -0.1126 C.ar    1  LIG1        0.0315
     25 C          -0.7443    6.9150    0.3499 C.ar    1  LIG1       -0.0214
     26 C          -1.5288    8.0719   -0.0007 C.ar    1  LIG1        0.0236
     27 C          -2.6664    7.7649   -0.6931 C.ar    1  LIG1        0.0402
     28 S          -2.8041    6.0608   -0.9537 S.2     1  LIG1       -0.0858
     29 C           0.5404    6.9853    1.1386 C.3     1  LIG1       -0.0375
     30 H           0.3734    7.5335    2.0679 H       1  LIG1        0.0278
     31 H           1.3123    7.5040    0.5654 H       1  LIG1        0.0278
     32 H           0.8882    5.9794    1.3720 H       1  LIG1        0.0278
     33 S          -0.9853    9.6952    0.4418 S.3     1  LIG1       -0.1412
     34 H          -2.0271   10.3177   -0.1233 H       1  LIG1        0.1071
     35 C          -3.6885    8.7034   -1.1817 C.ar    1  LIG1        0.0309
     36 C          -4.5478    9.4502   -0.4250 C.ar    1  LIG1       -0.0220
     37 C          -5.3880   10.2799   -1.2537 C.ar    1  LIG1        0.0153
     38 C          -5.1436   10.1283   -2.5824 C.ar    1  LIG1       -0.0103
     39 S          -3.8870    8.9911   -2.8764 S.2     1  LIG1       -0.0947
     40 H          -5.6336   10.6236   -3.4056 H       1  LIG1        0.0704
     41 C          -4.6331    9.4106    1.0815 C.3     1  LIG1       -0.0376
     42 H          -5.6561    9.1850    1.3884 H       1  LIG1        0.0278
     43 H          -4.3499   10.3772    1.5051 H       1  LIG1        0.0278
     44 H          -3.9633    8.6449    1.4710 H       1  LIG1        0.0278
     45 S          -6.5911   11.3456   -0.4995 S.3     1  LIG1       -0.1418
     46 H          -7.1287   11.7757   -1.6444 H       1  LIG1        0.1071
@<TRIPOS>BOND
     1    40    38    1
     2    39    38   ar
     3    39    35   ar
     4    38    37   ar
     5    20    18    1
     6    23    22    1
     7    46    45    1
     8    12    11    1
     9    22    15    1
    10    11     3    1
    11    37    45    1
    12    37    36   ar
    13    35    27    1
    14    35    36   ar
    15    28    27   ar
    16    28    24   ar
    17    27    26   ar
    18    18    19    1
    19    18    21    1
    20    18    14    1
    21    15    14   ar
    22    15    16   ar
    23    36    41    1
    24    14    13   ar
    25     8     7    1
    26    34    33    1
    27    24    16    1
    28    24    25   ar
    29     9     7    1
    30    26    25   ar
    31    26    33    1
    32    16    17   ar
    33     3     4   ar
    34     3     2   ar
    35    25    29    1
    36     7     2    1
    37     7    10    1
    38    13    17   ar
    39    13     4    1
    40    31    29    1
    41     4     5   ar
    42    41    42    1
    43    41    44    1
    44    41    43    1
    45     2     1   ar
    46    29    32    1
    47    29    30    1
    48     1     5   ar
    49     1     6    1
