@<TRIPOS>MOLECULE
mol_data/opt/m06hf/geoms/mol2/5ih.out
 14 14 0 0 0
SMALL
GASTEIGER

@<TRIPOS>ATOM
      1 C          -2.1430   -1.6673    0.0812 C.ar    1  LIG1       -0.0196
      2 C          -0.7884   -1.6758    0.0039 C.ar    1  LIG1       -0.0228
      3 C          -0.2536   -0.3327   -0.0783 C.ar    1  LIG1        0.0346
      4 C          -1.2246    0.6193   -0.0560 C.ar    1  LIG1       -0.0034
      5 S          -2.8001   -0.0763    0.0747 S.2     1  LIG1       -0.1029
      6 H          -2.7957   -2.5228    0.1573 H       1  LIG1        0.0696
      7 H          -1.1002    1.6888   -0.1032 H       1  LIG1        0.0712
      8 C           0.0943   -2.9007    0.0219 C.3     1  LIG1       -0.0375
      9 H           0.8585   -2.7918    0.7933 H       1  LIG1        0.0278
     10 H           0.5934   -3.0359   -0.9412 H       1  LIG1        0.0278
     11 H          -0.4981   -3.7909    0.2280 H       1  LIG1        0.0278
     12 N           1.1363   -0.1119   -0.1010 N.pl3   1  LIG1       -0.3573
     13 H           1.6171   -0.7057   -0.7670 H       1  LIG1        0.1423
     14 H           1.3799    0.8576   -0.2601 H       1  LIG1        0.1423
@<TRIPOS>BOND
     1    10     8    1
     2    13    12    1
     3    14    12    1
     4     7     4    1
     5    12     3    1
     6     3     4   ar
     7     3     2   ar
     8     4     5   ar
     9     2     8    1
    10     2     1   ar
    11     8    11    1
    12     8     9    1
    13     5     1   ar
    14     1     6    1
