@<TRIPOS>MOLECULE
mol_data/opt/m06hf/geoms/mol2/5ih5ih5ih.out
 38 40 0 0 0
SMALL
GASTEIGER

@<TRIPOS>ATOM
      1 C          -1.4629   -1.7129    1.5487 C.ar    1  LIG1       -0.0190
      2 C          -0.7053   -1.8531    0.4314 C.ar    1  LIG1       -0.0222
      3 C          -0.3794   -0.5697   -0.1486 C.ar    1  LIG1        0.0430
      4 C          -0.8913    0.4806    0.5624 C.ar    1  LIG1        0.0471
      5 S          -1.7866   -0.0686    1.9451 S.2     1  LIG1       -0.0940
      6 H          -1.8448   -2.5052    2.1737 H       1  LIG1        0.0697
      7 C          -0.2397   -3.1592   -0.1665 C.3     1  LIG1       -0.0374
      8 H           0.8433   -3.1429   -0.3037 H       1  LIG1        0.0278
      9 H          -0.7087   -3.3300   -1.1392 H       1  LIG1        0.0278
     10 H          -0.5012   -3.9893    0.4879 H       1  LIG1        0.0278
     11 N           0.4122   -0.4506   -1.2968 N.pl3   1  LIG1       -0.3569
     12 H           0.2419   -1.1828   -1.9755 H       1  LIG1        0.1424
     13 H           0.3324    0.4669   -1.7230 H       1  LIG1        0.1424
     14 C          -0.7267    1.8991    0.2333 C.ar    1  LIG1        0.0330
     15 C           0.4553    2.5531    0.0222 C.ar    1  LIG1       -0.0139
     16 C           0.2433    3.9378   -0.3266 C.ar    1  LIG1        0.0436
     17 C          -1.0780    4.2915   -0.3432 C.ar    1  LIG1        0.0477
     18 S          -2.1002    2.9398    0.0387 S.2     1  LIG1       -0.0850
     19 C           1.8316    1.9565    0.1944 C.3     1  LIG1       -0.0368
     20 H           2.4490    2.6423    0.7778 H       1  LIG1        0.0278
     21 H           2.3165    1.7825   -0.7705 H       1  LIG1        0.0278
     22 H           1.7569    0.9998    0.7097 H       1  LIG1        0.0278
     23 N           1.3090    4.8158   -0.5557 N.pl3   1  LIG1       -0.3568
     24 H           2.0774    4.3878   -1.0578 H       1  LIG1        0.1424
     25 H           1.0060    5.6724   -1.0070 H       1  LIG1        0.1424
     26 C          -1.6005    5.6327   -0.6188 C.ar    1  LIG1        0.0324
     27 C          -1.2460    6.7911    0.0140 C.ar    1  LIG1       -0.0145
     28 C          -1.9361    7.9366   -0.5378 C.ar    1  LIG1        0.0352
     29 C          -2.7872    7.6031   -1.5450 C.ar    1  LIG1       -0.0028
     30 S          -2.7764    5.9068   -1.8654 S.2     1  LIG1       -0.0939
     31 H          -3.4280    8.2632   -2.1073 H       1  LIG1        0.0712
     32 C          -0.3201    6.8949    1.2017 C.3     1  LIG1       -0.0369
     33 H          -0.7845    7.5295    1.9587 H       1  LIG1        0.0278
     34 H           0.6430    7.3314    0.9215 H       1  LIG1        0.0278
     35 H          -0.1326    5.9043    1.6144 H       1  LIG1        0.0278
     36 N          -1.7650    9.2138    0.0223 N.pl3   1  LIG1       -0.3573
     37 H          -0.7956    9.4383    0.2119 H       1  LIG1        0.1423
     38 H          -2.2025    9.9508   -0.5149 H       1  LIG1        0.1423
@<TRIPOS>BOND
     1    31    29    1
     2    12    11    1
     3    30    29   ar
     4    30    26   ar
     5    13    11    1
     6    29    28   ar
     7    11     3    1
     8     9     7    1
     9    24    23    1
    10    25    23    1
    11    21    19    1
    12    26    17    1
    13    26    27   ar
    14    23    16    1
    15    28    27   ar
    16    28    36    1
    17    38    36    1
    18    17    16   ar
    19    17    18   ar
    20    16    15   ar
    21     8     7    1
    22     7     2    1
    23     7    10    1
    24     3     2   ar
    25     3     4   ar
    26    27    32    1
    27    15    19    1
    28    15    14   ar
    29    36    37    1
    30    18    14   ar
    31    19    22    1
    32    19    20    1
    33    14     4    1
    34     2     1   ar
    35     4     5   ar
    36    34    32    1
    37    32    35    1
    38    32    33    1
    39     1     5   ar
    40     1     6    1
