@<TRIPOS>MOLECULE
mol_data/opt/m06hf/geoms/mol2/5ih5ih5ih-5ih-.out
 50 53 0 0 0
SMALL
GASTEIGER

@<TRIPOS>ATOM
      1 C          -0.9364   -1.5759    2.1636 C.ar    1  LIG1       -0.0190
      2 C          -0.6301   -1.8045    0.8610 C.ar    1  LIG1       -0.0222
      3 C          -0.4701   -0.5666    0.1316 C.ar    1  LIG1        0.0430
      4 C          -0.6482    0.5397    0.9154 C.ar    1  LIG1        0.0471
      5 S          -1.0223    0.0997    2.5540 S.2     1  LIG1       -0.0940
      6 H          -1.1094   -2.3183    2.9272 H       1  LIG1        0.0697
      7 C          -0.4626   -3.1575    0.2118 C.3     1  LIG1       -0.0374
      8 H           0.5126   -3.2193   -0.2746 H       1  LIG1        0.0278
      9 H          -1.2363   -3.3245   -0.5424 H       1  LIG1        0.0278
     10 H          -0.5380   -3.9471    0.9577 H       1  LIG1        0.0278
     11 N          -0.1274   -0.5419   -1.2249 N.pl3   1  LIG1       -0.3569
     12 H          -0.5673   -1.2798   -1.7613 H       1  LIG1        0.1424
     13 H          -0.2940    0.3660   -1.6462 H       1  LIG1        0.1424
     14 C          -0.5462    1.9320    0.4715 C.ar    1  LIG1        0.0330
     15 C           0.5091    2.5016   -0.1860 C.ar    1  LIG1       -0.0139
     16 C           0.2518    3.8848   -0.5089 C.ar    1  LIG1        0.0436
     17 C          -0.9658    4.3220   -0.0628 C.ar    1  LIG1        0.0477
     18 S          -1.8455    3.0506    0.7267 S.2     1  LIG1       -0.0850
     19 C           1.8244    1.8235   -0.4860 C.3     1  LIG1       -0.0368
     20 H           2.6433    2.4796   -0.1851 H       1  LIG1        0.0278
     21 H           1.9278    1.6004   -1.5521 H       1  LIG1        0.0278
     22 H           1.8874    0.8834    0.0607 H       1  LIG1        0.0278
     23 N           1.1993    4.6819   -1.1597 N.pl3   1  LIG1       -0.3568
     24 H           1.7330    4.1790   -1.8581 H       1  LIG1        0.1424
     25 H           0.7911    5.5269   -1.5456 H       1  LIG1        0.1424
     26 C          -1.4845    5.6855   -0.1972 C.ar    1  LIG1        0.0330
     27 C          -0.8474    6.8353    0.1825 C.ar    1  LIG1       -0.0139
     28 C          -1.6301    8.0062   -0.1331 C.ar    1  LIG1        0.0436
     29 C          -2.8348    7.7077   -0.7077 C.ar    1  LIG1        0.0477
     30 S          -3.0375    5.9954   -0.9039 S.2     1  LIG1       -0.0850
     31 C           0.4706    6.9087    0.9154 C.3     1  LIG1       -0.0368
     32 H           0.3773    7.6093    1.7473 H       1  LIG1        0.0278
     33 H           1.2779    7.2475    0.2596 H       1  LIG1        0.0278
     34 H           0.7377    5.9228    1.2937 H       1  LIG1        0.0278
     35 N          -1.1947    9.2965    0.1878 N.pl3   1  LIG1       -0.3568
     36 H          -0.2003    9.4278    0.0481 H       1  LIG1        0.1424
     37 H          -1.7338   10.0111   -0.2894 H       1  LIG1        0.1424
     38 C          -3.8544    8.6822   -1.1040 C.ar    1  LIG1        0.0324
     39 C          -4.4034    9.6536   -0.3157 C.ar    1  LIG1       -0.0145
     40 C          -5.3539   10.4636   -1.0463 C.ar    1  LIG1        0.0352
     41 C          -5.4972   10.0690   -2.3402 C.ar    1  LIG1       -0.0028
     42 S          -4.4869    8.7211   -2.7196 S.2     1  LIG1       -0.0939
     43 H          -6.1503   10.4919   -3.0864 H       1  LIG1        0.0712
     44 C          -4.1456    9.8365    1.1606 C.3     1  LIG1       -0.0369
     45 H          -5.1018    9.9505    1.6745 H       1  LIG1        0.0278
     46 H          -3.5363   10.7241    1.3547 H       1  LIG1        0.0278
     47 H          -3.6129    8.9719    1.5544 H       1  LIG1        0.0278
     48 N          -6.0817   11.4734   -0.3945 N.pl3   1  LIG1       -0.3573
     49 H          -5.5055   12.0587    0.1985 H       1  LIG1        0.1423
     50 H          -6.6373   12.0399   -1.0222 H       1  LIG1        0.1423
@<TRIPOS>BOND
     1    43    41    1
     2    42    41   ar
     3    42    38   ar
     4    41    40   ar
     5    24    23    1
     6    12    11    1
     7    13    11    1
     8    21    19    1
     9    25    23    1
    10    11     3    1
    11    23    16    1
    12    38    29    1
    13    38    39   ar
    14    40    48    1
    15    40    39   ar
    16    50    48    1
    17    30    29   ar
    18    30    26   ar
    19    29    28   ar
    20     9     7    1
    21    16    15   ar
    22    16    17   ar
    23    19    15    1
    24    19    20    1
    25    19    22    1
    26    48    49    1
    27    39    44    1
    28    37    35    1
    29     8     7    1
    30    26    17    1
    31    26    27   ar
    32    15    14   ar
    33    28    27   ar
    34    28    35    1
    35    17    18   ar
    36    36    35    1
    37     3     2   ar
    38     3     4   ar
    39    27    31    1
    40     7     2    1
    41     7    10    1
    42    33    31    1
    43    14    18   ar
    44    14     4    1
    45     2     1   ar
    46     4     5   ar
    47    31    34    1
    48    31    32    1
    49    44    46    1
    50    44    47    1
    51    44    45    1
    52     1     5   ar
    53     1     6    1
