@<TRIPOS>MOLECULE
mol_data/opt/m06hf/geoms/mol2/5ih5ih5ih5ih-.out
 50 53 0 0 0
SMALL
GASTEIGER

@<TRIPOS>ATOM
      1 C          -0.9227   -1.5778    2.1587 C.ar    1  LIG1       -0.0190
      2 C          -0.6251   -1.8054    0.8539 C.ar    1  LIG1       -0.0222
      3 C          -0.4697   -0.5670    0.1244 C.ar    1  LIG1        0.0430
      4 C          -0.6424    0.5387    0.9102 C.ar    1  LIG1        0.0471
      5 S          -1.0057    0.0975    2.5509 S.2     1  LIG1       -0.0940
      6 H          -1.0907   -2.3207    2.9228 H       1  LIG1        0.0697
      7 C          -0.4621   -3.1580    0.2026 C.3     1  LIG1       -0.0374
      8 H           0.5098   -3.2195   -0.2903 H       1  LIG1        0.0278
      9 H          -1.2408   -3.3243   -0.5466 H       1  LIG1        0.0278
     10 H          -0.5327   -3.9482    0.9483 H       1  LIG1        0.0278
     11 N          -0.1360   -0.5413   -1.2343 N.pl3   1  LIG1       -0.3569
     12 H          -0.5795   -1.2788   -1.7684 H       1  LIG1        0.1424
     13 H          -0.3053    0.3669   -1.6538 H       1  LIG1        0.1424
     14 C          -0.5431    1.9314    0.4667 C.ar    1  LIG1        0.0330
     15 C           0.5080    2.5013   -0.1974 C.ar    1  LIG1       -0.0139
     16 C           0.2487    3.8848   -0.5174 C.ar    1  LIG1        0.0436
     17 C          -0.9659    4.3218   -0.0630 C.ar    1  LIG1        0.0477
     18 S          -1.8405    3.0499    0.7313 S.2     1  LIG1       -0.0850
     19 C           1.8210    1.8231   -0.5066 C.3     1  LIG1       -0.0368
     20 H           2.6420    2.4789   -0.2107 H       1  LIG1        0.0278
     21 H           1.9174    1.6008   -1.5735 H       1  LIG1        0.0278
     22 H           1.8875    0.8826    0.0389 H       1  LIG1        0.0278
     23 N           1.1920    4.6822   -1.1740 N.pl3   1  LIG1       -0.3568
     24 H           1.7210    4.1797   -1.8762 H       1  LIG1        0.1424
     25 H           0.7814    5.5275   -1.5565 H       1  LIG1        0.1424
     26 C          -1.4851    5.6855   -0.1929 C.ar    1  LIG1        0.0330
     27 C          -0.8453    6.8349    0.1834 C.ar    1  LIG1       -0.0139
     28 C          -1.6300    8.0061   -0.1261 C.ar    1  LIG1        0.0436
     29 C          -2.8385    7.7083   -0.6930 C.ar    1  LIG1        0.0477
     30 S          -3.0427    5.9962   -0.8891 S.2     1  LIG1       -0.0850
     31 C           0.4775    6.9075    0.9076 C.3     1  LIG1       -0.0368
     32 H           0.3898    7.6075    1.7407 H       1  LIG1        0.0278
     33 H           1.2805    7.2467    0.2467 H       1  LIG1        0.0278
     34 H           0.7469    5.9213    1.2833 H       1  LIG1        0.0278
     35 N          -1.1922    9.2961    0.1929 N.pl3   1  LIG1       -0.3568
     36 H          -0.1987    9.4274    0.0466 H       1  LIG1        0.1424
     37 H          -1.7344   10.0112   -0.2802 H       1  LIG1        0.1424
     38 C          -3.8605    8.6833   -1.0817 C.ar    1  LIG1        0.0324
     39 C          -4.4041    9.6542   -0.2891 C.ar    1  LIG1       -0.0145
     40 C          -5.3593   10.4649   -1.0127 C.ar    1  LIG1        0.0352
     41 C          -5.5113   10.0713   -2.3059 C.ar    1  LIG1       -0.0028
     42 S          -4.5038    8.7235   -2.6930 S.2     1  LIG1       -0.0939
     43 H          -6.1692   10.4948   -3.0474 H       1  LIG1        0.0712
     44 C          -4.1364    9.8359    1.1857 C.3     1  LIG1       -0.0369
     45 H          -5.0893    9.9497    1.7060 H       1  LIG1        0.0278
     46 H          -3.5257   10.7233    1.3764 H       1  LIG1        0.0278
     47 H          -3.6013    8.9709    1.5753 H       1  LIG1        0.0278
     48 N          -6.0826   11.4744   -0.3553 N.pl3   1  LIG1       -0.3573
     49 H          -5.5024   12.0591    0.2343 H       1  LIG1        0.1423
     50 H          -6.6423   12.0414   -0.9789 H       1  LIG1        0.1423
@<TRIPOS>BOND
     1    43    41    1
     2    42    41   ar
     3    42    38   ar
     4    41    40   ar
     5    24    23    1
     6    12    11    1
     7    13    11    1
     8    21    19    1
     9    25    23    1
    10    11     3    1
    11    23    16    1
    12    38    29    1
    13    38    39   ar
    14    40    48    1
    15    40    39   ar
    16    50    48    1
    17    30    29   ar
    18    30    26   ar
    19    29    28   ar
    20     9     7    1
    21    16    15   ar
    22    16    17   ar
    23    19    20    1
    24    19    15    1
    25    19    22    1
    26    48    49    1
    27     8     7    1
    28    39    44    1
    29    37    35    1
    30    15    14   ar
    31    26    17    1
    32    26    27   ar
    33    28    27   ar
    34    28    35    1
    35    17    18   ar
    36    36    35    1
    37     3     2   ar
    38     3     4   ar
    39    27    31    1
    40     7     2    1
    41     7    10    1
    42    33    31    1
    43    14    18   ar
    44    14     4    1
    45     2     1   ar
    46    31    34    1
    47    31    32    1
    48     4     5   ar
    49    44    46    1
    50    44    47    1
    51    44    45    1
    52     1     5   ar
    53     1     6    1
