@<TRIPOS>MOLECULE
mol_data/opt/m06hf/geoms/mol2/5ih5ih.out
 26 27 0 0 0
SMALL
GASTEIGER

@<TRIPOS>ATOM
      1 C          -1.8854   -1.7479    0.8707 C.ar    1  LIG1       -0.0190
      2 C          -0.7404   -1.8185    0.1452 C.ar    1  LIG1       -0.0222
      3 C          -0.3035   -0.5075   -0.2797 C.ar    1  LIG1        0.0430
      4 C          -1.1281    0.4941    0.1511 C.ar    1  LIG1        0.0470
      5 S          -2.4529   -0.1354    1.0834 S.2     1  LIG1       -0.0940
      6 H          -2.4264   -2.5733    1.3062 H       1  LIG1        0.0697
      7 C           0.0168   -3.0789   -0.1986 C.3     1  LIG1       -0.0374
      8 H           1.0618   -2.9785    0.1005 H       1  LIG1        0.0278
      9 H          -0.0176   -3.2728   -1.2742 H       1  LIG1        0.0278
     10 H          -0.4189   -3.9340    0.3158 H       1  LIG1        0.0278
     11 N           0.8697   -0.3166   -1.0197 N.pl3   1  LIG1       -0.3569
     12 H           1.0278   -1.0414   -1.7093 H       1  LIG1        0.1424
     13 H           0.9057    0.6041   -1.4445 H       1  LIG1        0.1424
     14 C          -0.9497    1.9252   -0.1097 C.ar    1  LIG1        0.0324
     15 C           0.1596    2.6747    0.1629 C.ar    1  LIG1       -0.0145
     16 C          -0.0019    4.0476   -0.2645 C.ar    1  LIG1        0.0352
     17 C          -1.2181    4.2848   -0.8249 C.ar    1  LIG1       -0.0028
     18 S          -2.1995    2.8635   -0.8647 S.2     1  LIG1       -0.0939
     19 H          -1.5939    5.2209   -1.2048 H       1  LIG1        0.0712
     20 C           1.3865    2.1881    0.8959 C.3     1  LIG1       -0.0369
     21 H           1.6508    2.9146    1.6666 H       1  LIG1        0.0278
     22 H           2.2380    2.0705    0.2195 H       1  LIG1        0.0278
     23 H           1.1832    1.2209    1.3537 H       1  LIG1        0.0278
     24 N           1.0007    4.9999   -0.0088 N.pl3   1  LIG1       -0.3573
     25 H           1.9285    4.6667   -0.2430 H       1  LIG1        0.1423
     26 H           0.8245    5.8933   -0.4495 H       1  LIG1        0.1423
@<TRIPOS>BOND
     1    12    11    1
     2    13    11    1
     3     9     7    1
     4    19    17    1
     5    11     3    1
     6    18    17   ar
     7    18    14   ar
     8    17    16   ar
     9    26    24    1
    10     3     2   ar
    11     3     4   ar
    12    16    24    1
    13    16    15   ar
    14    25    24    1
    15     7     8    1
    16     7     2    1
    17     7    10    1
    18    14     4    1
    19    14    15   ar
    20     2     1   ar
    21     4     5   ar
    22    15    20    1
    23    22    20    1
    24     1     5   ar
    25     1     6    1
    26    20    23    1
    27    20    21    1
