@<TRIPOS>MOLECULE
mol_data/opt/m06hf/geoms/mol2/5ih5ih5ih-5ih.out
 50 53 0 0 0
SMALL
GASTEIGER

@<TRIPOS>ATOM
      1 C          -0.9482   -1.5789    2.1619 C.ar    1  LIG1       -0.0190
      2 C          -0.6354   -1.8057    0.8605 C.ar    1  LIG1       -0.0222
      3 C          -0.4717   -0.5667    0.1337 C.ar    1  LIG1        0.0430
      4 C          -0.6537    0.5384    0.9182 C.ar    1  LIG1        0.0471
      5 S          -1.0359    0.0961    2.5542 S.2     1  LIG1       -0.0940
      6 H          -1.1250   -2.3224    2.9235 H       1  LIG1        0.0697
      7 C          -0.4648   -3.1578    0.2102 C.3     1  LIG1       -0.0374
      8 H           0.5128   -3.2189   -0.2714 H       1  LIG1        0.0278
      9 H          -1.2347   -3.3236   -0.5481 H       1  LIG1        0.0278
     10 H          -0.5440   -3.9485    0.9546 H       1  LIG1        0.0278
     11 N          -0.1222   -0.5401   -1.2210 N.pl3   1  LIG1       -0.3569
     12 H          -0.5594   -1.2773   -1.7607 H       1  LIG1        0.1424
     13 H          -0.2867    0.3684   -1.6418 H       1  LIG1        0.1424
     14 C          -0.5493    1.9314    0.4768 C.ar    1  LIG1        0.0330
     15 C           0.5093    2.5018   -0.1746 C.ar    1  LIG1       -0.0139
     16 C           0.2537    3.8855   -0.4968 C.ar    1  LIG1        0.0436
     17 C          -0.9661    4.3221   -0.0562 C.ar    1  LIG1        0.0477
     18 S          -1.8498    3.0497    0.7272 S.2     1  LIG1       -0.0850
     19 C           1.8259    1.8240   -0.4691 C.3     1  LIG1       -0.0368
     20 H           2.6434    2.4796   -0.1632 H       1  LIG1        0.0278
     21 H           1.9346    1.6024   -1.5350 H       1  LIG1        0.0278
     22 H           1.8862    0.8831    0.0766 H       1  LIG1        0.0278
     23 N           1.2044    4.6834   -1.1418 N.pl3   1  LIG1       -0.3568
     24 H           1.7416    4.1815   -1.8382 H       1  LIG1        0.1424
     25 H           0.7982    5.5290   -1.5285 H       1  LIG1        0.1424
     26 C          -1.4840    5.6859   -0.1912 C.ar    1  LIG1        0.0330
     27 C          -0.8487    6.8351    0.1933 C.ar    1  LIG1       -0.0139
     28 C          -1.6298    8.0065   -0.1245 C.ar    1  LIG1        0.0436
     29 C          -2.8316    7.7089   -0.7055 C.ar    1  LIG1        0.0477
     30 S          -3.0334    5.9969   -0.9051 S.2     1  LIG1       -0.0850
     31 C           0.4656    6.9073    0.9328 C.3     1  LIG1       -0.0368
     32 H           0.3682    7.6068    1.7653 H       1  LIG1        0.0278
     33 H           1.2762    7.2470    0.2815 H       1  LIG1        0.0278
     34 H           0.7307    5.9209    1.3110 H       1  LIG1        0.0278
     35 N          -1.1959    9.2963    0.2003 N.pl3   1  LIG1       -0.3568
     36 H          -0.2007    9.4277    0.0657 H       1  LIG1        0.1424
     37 H          -1.7326   10.0116   -0.2786 H       1  LIG1        0.1424
     38 C          -3.8492    8.6840   -1.1055 C.ar    1  LIG1        0.0324
     39 C          -4.4020    9.6544   -0.3186 C.ar    1  LIG1       -0.0145
     40 C          -5.3489   10.4655   -1.0526 C.ar    1  LIG1        0.0352
     41 C          -5.4858   10.0727   -2.3477 C.ar    1  LIG1       -0.0028
     42 S          -4.4738    8.7253   -2.7241 S.2     1  LIG1       -0.0939
     43 H          -6.1352   10.4967   -3.0966 H       1  LIG1        0.0712
     44 C          -4.1515    9.8352    1.1593 C.3     1  LIG1       -0.0369
     45 H          -5.1102    9.9485    1.6686 H       1  LIG1        0.0278
     46 H          -3.5431   10.7224    1.3577 H       1  LIG1        0.0278
     47 H          -3.6208    8.9699    1.5545 H       1  LIG1        0.0278
     48 N          -6.0798   11.4745   -0.4030 N.pl3   1  LIG1       -0.3573
     49 H          -5.5065   12.0589    0.1936 H       1  LIG1        0.1423
     50 H          -6.6323   12.0418   -1.0326 H       1  LIG1        0.1423
@<TRIPOS>BOND
     1    43    41    1
     2    42    41   ar
     3    42    38   ar
     4    41    40   ar
     5    24    23    1
     6    12    11    1
     7    13    11    1
     8    21    19    1
     9    25    23    1
    10    11     3    1
    11    23    16    1
    12    38    29    1
    13    38    39   ar
    14    40    48    1
    15    40    39   ar
    16    50    48    1
    17    30    29   ar
    18    30    26   ar
    19    29    28   ar
    20     9     7    1
    21    16    15   ar
    22    16    17   ar
    23    19    15    1
    24    19    20    1
    25    19    22    1
    26    48    49    1
    27    39    44    1
    28    37    35    1
    29     8     7    1
    30    26    17    1
    31    26    27   ar
    32    15    14   ar
    33    28    27   ar
    34    28    35    1
    35    17    18   ar
    36    36    35    1
    37     3     2   ar
    38     3     4   ar
    39    27    31    1
    40     7     2    1
    41     7    10    1
    42    33    31    1
    43    14    18   ar
    44    14     4    1
    45     2     1   ar
    46     4     5   ar
    47    31    34    1
    48    31    32    1
    49    44    46    1
    50    44    47    1
    51    44    45    1
    52     1     5   ar
    53     1     6    1
