@<TRIPOS>MOLECULE
mol_data/opt/m06hf/geoms/mol2/5ih5ih-5ih-.out
 38 40 0 0 0
SMALL
GASTEIGER

@<TRIPOS>ATOM
      1 C          -1.4741   -1.7220    1.5251 C.ar    1  LIG1       -0.0190
      2 C          -0.7100   -1.8557    0.4114 C.ar    1  LIG1       -0.0222
      3 C          -0.3803   -0.5690   -0.1589 C.ar    1  LIG1        0.0430
      4 C          -0.8960    0.4772    0.5553 C.ar    1  LIG1        0.0471
      5 S          -1.7996   -0.0800    1.9294 S.2     1  LIG1       -0.0940
      6 H          -1.8599   -2.5179    2.1431 H       1  LIG1        0.0697
      7 C          -0.2413   -3.1584   -0.1915 C.3     1  LIG1       -0.0374
      8 H           0.8425   -3.1417   -0.3223 H       1  LIG1        0.0278
      9 H          -0.7046   -3.3233   -1.1680 H       1  LIG1        0.0278
     10 H          -0.5070   -3.9923    0.4564 H       1  LIG1        0.0278
     11 N           0.4180   -0.4433   -1.3018 N.pl3   1  LIG1       -0.3569
     12 H           0.2515   -1.1714   -1.9858 H       1  LIG1        0.1424
     13 H           0.3411    0.4768   -1.7229 H       1  LIG1        0.1424
     14 C          -0.7290    1.8976    0.2357 C.ar    1  LIG1        0.0330
     15 C           0.4544    2.5524    0.0354 C.ar    1  LIG1       -0.0139
     16 C           0.2449    3.9392   -0.3064 C.ar    1  LIG1        0.0436
     17 C          -1.0762    4.2935   -0.3286 C.ar    1  LIG1        0.0477
     18 S          -2.1010    2.9399    0.0393 S.2     1  LIG1       -0.0850
     19 C           1.8295    1.9543    0.2120 C.3     1  LIG1       -0.0368
     20 H           2.4437    2.6364    0.8032 H       1  LIG1        0.0278
     21 H           2.3200    1.7860   -0.7510 H       1  LIG1        0.0278
     22 H           1.7514    0.9946    0.7212 H       1  LIG1        0.0278
     23 N           1.3121    4.8182   -0.5240 N.pl3   1  LIG1       -0.3568
     24 H           2.0834    4.3930   -1.0241 H       1  LIG1        0.1424
     25 H           1.0121    5.6776   -0.9719 H       1  LIG1        0.1424
     26 C          -1.5966    5.6365   -0.5992 C.ar    1  LIG1        0.0324
     27 C          -1.2454    6.7910    0.0425 C.ar    1  LIG1       -0.0145
     28 C          -1.9319    7.9401   -0.5064 C.ar    1  LIG1        0.0352
     29 C          -2.7773    7.6128   -1.5205 C.ar    1  LIG1       -0.0028
     30 S          -2.7651    5.9185   -1.8510 S.2     1  LIG1       -0.0939
     31 H          -3.4145    8.2765   -2.0826 H       1  LIG1        0.0712
     32 C          -0.3265    6.8874    1.2363 C.3     1  LIG1       -0.0369
     33 H          -0.7951    7.5177    1.9944 H       1  LIG1        0.0278
     34 H           0.6383    7.3253    0.9644 H       1  LIG1        0.0278
     35 H          -0.1417    5.8942    1.6442 H       1  LIG1        0.0278
     36 N          -1.7637    9.2138    0.0623 N.pl3   1  LIG1       -0.3573
     37 H          -0.7954    9.4369    0.2589 H       1  LIG1        0.1423
     38 H          -2.1979    9.9541   -0.4730 H       1  LIG1        0.1423
@<TRIPOS>BOND
     1    31    29    1
     2    12    11    1
     3    30    29   ar
     4    30    26   ar
     5    13    11    1
     6    29    28   ar
     7    11     3    1
     8     9     7    1
     9    24    23    1
    10    25    23    1
    11    21    19    1
    12    26    17    1
    13    26    27   ar
    14    23    16    1
    15    28    27   ar
    16    28    36    1
    17    38    36    1
    18    17    16   ar
    19    17    18   ar
    20     8     7    1
    21    16    15   ar
    22     7     2    1
    23     7    10    1
    24     3     2   ar
    25     3     4   ar
    26    15    19    1
    27    15    14   ar
    28    18    14   ar
    29    27    32    1
    30    36    37    1
    31    19    22    1
    32    19    20    1
    33    14     4    1
    34     2     1   ar
    35     4     5   ar
    36    34    32    1
    37    32    35    1
    38    32    33    1
    39     1     5   ar
    40     1     6    1
