@<TRIPOS>MOLECULE
mol_data/opt/m06hf/geoms/mol2/5ih5ih-5ih5ih.out
 50 53 0 0 0
SMALL
GASTEIGER

@<TRIPOS>ATOM
      1 C          -0.9008   -1.5783    2.1741 C.ar    1  LIG1       -0.0190
      2 C          -0.6164   -1.8055    0.8664 C.ar    1  LIG1       -0.0222
      3 C          -0.4683   -0.5668    0.1357 C.ar    1  LIG1        0.0430
      4 C          -0.6330    0.5386    0.9235 C.ar    1  LIG1        0.0471
      5 S          -0.9797    0.0969    2.5677 S.2     1  LIG1       -0.0940
      6 H          -1.0611   -2.3214    2.9397 H       1  LIG1        0.0697
      7 C          -0.4601   -3.1579    0.2130 C.3     1  LIG1       -0.0374
      8 H           0.5068   -3.2193   -0.2898 H       1  LIG1        0.0278
      9 H          -1.2464   -3.3239   -0.5284 H       1  LIG1        0.0278
     10 H          -0.5232   -3.9483    0.9592 H       1  LIG1        0.0278
     11 N          -0.1483   -0.5408   -1.2263 N.pl3   1  LIG1       -0.3569
     12 H          -0.5973   -1.2781   -1.7561 H       1  LIG1        0.1424
     13 H          -0.3218    0.3676   -1.6438 H       1  LIG1        0.1424
     14 C          -0.5381    1.9314    0.4795 C.ar    1  LIG1        0.0330
     15 C           0.5062    2.5014   -0.1950 C.ar    1  LIG1       -0.0139
     16 C           0.2439    3.8850   -0.5120 C.ar    1  LIG1        0.0436
     17 C          -0.9660    4.3220   -0.0451 C.ar    1  LIG1        0.0477
     18 S          -1.8326    3.0500    0.7577 S.2     1  LIG1       -0.0850
     19 C           1.8160    1.8233   -0.5177 C.3     1  LIG1       -0.0368
     20 H           2.6401    2.4789   -0.2299 H       1  LIG1        0.0278
     21 H           1.9015    1.6013   -1.5857 H       1  LIG1        0.0278
     22 H           1.8880    0.8826    0.0268 H       1  LIG1        0.0278
     23 N           1.1805    4.6825   -1.1778 N.pl3   1  LIG1       -0.3568
     24 H           1.7023    4.1803   -1.8856 H       1  LIG1        0.1424
     25 H           0.7661    5.5280   -1.5559 H       1  LIG1        0.1424
     26 C          -1.4865    5.6858   -0.1693 C.ar    1  LIG1        0.0330
     27 C          -0.8428    6.8350    0.2008 C.ar    1  LIG1       -0.0139
     28 C          -1.6304    8.0064   -0.1004 C.ar    1  LIG1        0.0436
     29 C          -2.8446    7.7089   -0.6550 C.ar    1  LIG1        0.0477
     30 S          -3.0510    5.9968   -0.8496 S.2     1  LIG1       -0.0850
     31 C           0.4873    6.9073    0.9116 C.3     1  LIG1       -0.0368
     32 H           0.4081    7.6071    1.7457 H       1  LIG1        0.0278
     33 H           1.2836    7.2466    0.2427 H       1  LIG1        0.0278
     34 H           0.7604    5.9210    1.2843 H       1  LIG1        0.0278
     35 N          -1.1893    9.2963    0.2145 N.pl3   1  LIG1       -0.3568
     36 H          -0.1973    9.4275    0.0582 H       1  LIG1        0.1424
     37 H          -1.7362   10.0115   -0.2529 H       1  LIG1        0.1424
     38 C          -3.8704    8.6840   -1.0331 C.ar    1  LIG1        0.0324
     39 C          -4.4059    9.6547   -0.2347 C.ar    1  LIG1       -0.0145
     40 C          -5.3684   10.4657   -0.9483 C.ar    1  LIG1        0.0352
     41 C          -5.5335   10.0725   -2.2400 C.ar    1  LIG1       -0.0028
     42 S          -4.5301    8.7248   -2.6378 S.2     1  LIG1       -0.0939
     43 H          -6.1989   10.4963   -2.9747 H       1  LIG1        0.0712
     44 C          -4.1233    9.8360    1.2373 C.3     1  LIG1       -0.0369
     45 H          -5.0708    9.9497    1.7673 H       1  LIG1        0.0278
     46 H          -3.5106   10.7232    1.4221 H       1  LIG1        0.0278
     47 H          -3.5843    8.9708    1.6212 H       1  LIG1        0.0278
     48 N          -6.0849   11.4751   -0.2833 N.pl3   1  LIG1       -0.3573
     49 H          -5.4986   12.0596    0.3005 H       1  LIG1        0.1423
     50 H          -6.6508   12.0422   -0.9010 H       1  LIG1        0.1423
@<TRIPOS>BOND
     1    43    41    1
     2    42    41   ar
     3    42    38   ar
     4    41    40   ar
     5    24    23    1
     6    12    11    1
     7    13    11    1
     8    21    19    1
     9    25    23    1
    10    11     3    1
    11    23    16    1
    12    38    29    1
    13    38    39   ar
    14    40    48    1
    15    40    39   ar
    16    50    48    1
    17    30    29   ar
    18    30    26   ar
    19    29    28   ar
    20     9     7    1
    21    19    20    1
    22    19    15    1
    23    19    22    1
    24    16    15   ar
    25    16    17   ar
    26     8     7    1
    27    48    49    1
    28    37    35    1
    29    39    44    1
    30    15    14   ar
    31    26    17    1
    32    26    27   ar
    33    28    27   ar
    34    28    35    1
    35    17    18   ar
    36    36    35    1
    37     3     2   ar
    38     3     4   ar
    39    27    31    1
    40     7     2    1
    41     7    10    1
    42    33    31    1
    43    14    18   ar
    44    14     4    1
    45     2     1   ar
    46    31    34    1
    47    31    32    1
    48     4     5   ar
    49    44    46    1
    50    44    47    1
    51    44    45    1
    52     1     5   ar
    53     1     6    1
