@<TRIPOS>MOLECULE
mol_data/opt/m06hf/geoms/mol2/5ih5ih-5ih-5ih.out
 50 53 0 0 0
SMALL
GASTEIGER

@<TRIPOS>ATOM
      1 C          -0.9234   -1.5823    2.1645 C.ar    1  LIG1       -0.0190
      2 C          -0.6258   -1.8071    0.8593 C.ar    1  LIG1       -0.0222
      3 C          -0.4703   -0.5671    0.1324 C.ar    1  LIG1        0.0430
      4 C          -0.6430    0.5369    0.9206 C.ar    1  LIG1        0.0471
      5 S          -1.0064    0.0922    2.5603 S.2     1  LIG1       -0.0940
      6 H          -1.0916   -2.3268    2.9270 H       1  LIG1        0.0697
      7 C          -0.4628   -3.1583    0.2050 C.3     1  LIG1       -0.0374
      8 H           0.5091   -3.2188   -0.2880 H       1  LIG1        0.0278
      9 H          -1.2415   -3.3229   -0.5446 H       1  LIG1        0.0278
     10 H          -0.5335   -3.9501    0.9491 H       1  LIG1        0.0278
     11 N          -0.1365   -0.5385   -1.2262 N.pl3   1  LIG1       -0.3569
     12 H          -0.5800   -1.2748   -1.7619 H       1  LIG1        0.1424
     13 H          -0.3057    0.3706   -1.6438 H       1  LIG1        0.1424
     14 C          -0.5436    1.9305    0.4801 C.ar    1  LIG1        0.0330
     15 C           0.5076    2.5018   -0.1827 C.ar    1  LIG1       -0.0139
     16 C           0.2484    3.8859   -0.4998 C.ar    1  LIG1        0.0436
     17 C          -0.9661    4.3221   -0.0445 C.ar    1  LIG1        0.0477
     18 S          -1.8409    3.0486    0.7471 S.2     1  LIG1       -0.0850
     19 C           1.8206    1.8242   -0.4933 C.3     1  LIG1       -0.0368
     20 H           2.6417    2.4793   -0.1960 H       1  LIG1        0.0278
     21 H           1.9170    1.6042   -1.5607 H       1  LIG1        0.0278
     22 H           1.8870    0.8825    0.0502 H       1  LIG1        0.0278
     23 N           1.1918    4.6847   -1.1546 N.pl3   1  LIG1       -0.3568
     24 H           1.7208    4.1837   -1.8579 H       1  LIG1        0.1424
     25 H           0.7813    5.5309   -1.5353 H       1  LIG1        0.1424
     26 C          -1.4853    5.6861   -0.1714 C.ar    1  LIG1        0.0330
     27 C          -0.8454    6.8346    0.2073 C.ar    1  LIG1       -0.0139
     28 C          -1.6300    8.0066   -0.0997 C.ar    1  LIG1        0.0436
     29 C          -2.8385    7.7101   -0.6672 C.ar    1  LIG1        0.0477
     30 S          -3.0429    5.9984   -0.8670 S.2     1  LIG1       -0.0850
     31 C           0.4773    6.9056    0.9317 C.3     1  LIG1       -0.0368
     32 H           0.3897    7.6038    1.7663 H       1  LIG1        0.0278
     33 H           1.2804    7.2461    0.2716 H       1  LIG1        0.0278
     34 H           0.7467    5.9186    1.3054 H       1  LIG1        0.0278
     35 N          -1.1921    9.2959    0.2221 N.pl3   1  LIG1       -0.3568
     36 H          -0.1986    9.4274    0.0762 H       1  LIG1        0.1424
     37 H          -1.7342   10.0120   -0.2495 H       1  LIG1        0.1424
     38 C          -3.8604    8.6859   -1.0539 C.ar    1  LIG1        0.0324
     39 C          -4.4040    9.6552   -0.2592 C.ar    1  LIG1       -0.0145
     40 C          -5.3592   10.4675   -0.9810 C.ar    1  LIG1        0.0352
     41 C          -5.5111   10.0766   -2.2751 C.ar    1  LIG1       -0.0028
     42 S          -4.5037    8.7297   -2.6651 S.2     1  LIG1       -0.0939
     43 H          -6.1690   10.5018   -3.0157 H       1  LIG1        0.0712
     44 C          -4.1364    9.8337    1.2160 C.3     1  LIG1       -0.0369
     45 H          -5.0892    9.9464    1.7365 H       1  LIG1        0.0278
     46 H          -3.5256   10.7206    1.4086 H       1  LIG1        0.0278
     47 H          -3.6013    8.9678    1.6037 H       1  LIG1        0.0278
     48 N          -6.0824   11.4756   -0.3215 N.pl3   1  LIG1       -0.3573
     49 H          -5.5021   12.0591    0.2693 H       1  LIG1        0.1423
     50 H          -6.6420   12.0440   -0.9439 H       1  LIG1        0.1423
@<TRIPOS>BOND
     1    43    41    1
     2    42    41   ar
     3    42    38   ar
     4    41    40   ar
     5    24    23    1
     6    12    11    1
     7    13    11    1
     8    21    19    1
     9    25    23    1
    10    11     3    1
    11    23    16    1
    12    38    29    1
    13    38    39   ar
    14    40    48    1
    15    40    39   ar
    16    50    48    1
    17    30    29   ar
    18    30    26   ar
    19    29    28   ar
    20     9     7    1
    21    16    15   ar
    22    16    17   ar
    23    19    20    1
    24    19    15    1
    25    19    22    1
    26    48    49    1
    27     8     7    1
    28    39    44    1
    29    37    35    1
    30    15    14   ar
    31    26    17    1
    32    26    27   ar
    33    28    27   ar
    34    28    35    1
    35    17    18   ar
    36    36    35    1
    37     3     2   ar
    38     3     4   ar
    39     7     2    1
    40     7    10    1
    41    27    31    1
    42    33    31    1
    43    14    18   ar
    44    14     4    1
    45     2     1   ar
    46     4     5   ar
    47    31    34    1
    48    31    32    1
    49    44    46    1
    50    44    47    1
    51    44    45    1
    52     1     5   ar
    53     1     6    1
