@<TRIPOS>MOLECULE
mol_data/opt/m06hf/geoms/mol2/5ih5ih5ih-.out
 38 40 0 0 0
SMALL
GASTEIGER

@<TRIPOS>ATOM
      1 C          -1.4779   -1.7149    1.5383 C.ar    1  LIG1       -0.0190
      2 C          -0.7091   -1.8536    0.4285 C.ar    1  LIG1       -0.0222
      3 C          -0.3776   -0.5694   -0.1466 C.ar    1  LIG1        0.0430
      4 C          -0.8969    0.4799    0.5604 C.ar    1  LIG1        0.0471
      5 S          -1.8063   -0.0712    1.9332 S.2     1  LIG1       -0.0940
      6 H          -1.8659   -2.5081    2.1585 H       1  LIG1        0.0697
      7 C          -0.2372   -3.1588   -0.1663 C.3     1  LIG1       -0.0374
      8 H           0.8472   -3.1422   -0.2924 H       1  LIG1        0.0278
      9 H          -0.6961   -3.3285   -1.1441 H       1  LIG1        0.0278
     10 H          -0.5053   -3.9898    0.4843 H       1  LIG1        0.0278
     11 N           0.4256   -0.4488   -1.2866 N.pl3   1  LIG1       -0.3569
     12 H           0.2619   -1.1798   -1.9681 H       1  LIG1        0.1424
     13 H           0.3503    0.4694   -1.7122 H       1  LIG1        0.1424
     14 C          -0.7293    1.8989    0.2348 C.ar    1  LIG1        0.0330
     15 C           0.4547    2.5534    0.0367 C.ar    1  LIG1       -0.0139
     16 C           0.2459    3.9386   -0.3123 C.ar    1  LIG1        0.0436
     17 C          -1.0753    4.2921   -0.3418 C.ar    1  LIG1        0.0477
     18 S          -2.1010    2.9395    0.0278 S.2     1  LIG1       -0.0850
     19 C           1.8292    1.9569    0.2218 C.3     1  LIG1       -0.0368
     20 H           2.4406    2.6420    0.8126 H       1  LIG1        0.0278
     21 H           2.3240    1.7844   -0.7382 H       1  LIG1        0.0278
     22 H           1.7495    0.9994    0.7350 H       1  LIG1        0.0278
     23 N           1.3136    4.8172   -0.5294 N.pl3   1  LIG1       -0.3568
     24 H           2.0872    4.3900   -1.0241 H       1  LIG1        0.1424
     25 H           1.0150    5.6742   -0.9828 H       1  LIG1        0.1424
     26 C          -1.5954    5.6335   -0.6207 C.ar    1  LIG1        0.0324
     27 C          -1.2477    6.7912    0.0172 C.ar    1  LIG1       -0.0145
     28 C          -1.9329    7.9372   -0.5397 C.ar    1  LIG1        0.0352
     29 C          -2.7739    7.6047   -1.5557 C.ar    1  LIG1       -0.0028
     30 S          -2.7586    5.9090   -1.8789 S.2     1  LIG1       -0.0939
     31 H          -3.4096    8.2654   -2.1232 H       1  LIG1        0.0712
     32 C          -0.3338    6.8936    1.2143 C.3     1  LIG1       -0.0369
     33 H          -0.8061    7.5270    1.9675 H       1  LIG1        0.0278
     34 H           0.6319    7.3310    0.9445 H       1  LIG1        0.0278
     35 H          -0.1501    5.9025    1.6275 H       1  LIG1        0.0278
     36 N          -1.7683    9.2135    0.0243 N.pl3   1  LIG1       -0.3573
     37 H          -0.8010    9.4384    0.2237 H       1  LIG1        0.1423
     38 H          -2.2009    9.9512   -0.5160 H       1  LIG1        0.1423
@<TRIPOS>BOND
     1    31    29    1
     2    12    11    1
     3    30    29   ar
     4    30    26   ar
     5    13    11    1
     6    29    28   ar
     7    11     3    1
     8     9     7    1
     9    24    23    1
    10    25    23    1
    11    21    19    1
    12    26    17    1
    13    26    27   ar
    14    28    27   ar
    15    28    36    1
    16    23    16    1
    17    38    36    1
    18    17    16   ar
    19    17    18   ar
    20    16    15   ar
    21     8     7    1
    22     7     2    1
    23     7    10    1
    24     3     2   ar
    25     3     4   ar
    26    27    32    1
    27    36    37    1
    28    18    14   ar
    29    15    19    1
    30    15    14   ar
    31    19    22    1
    32    19    20    1
    33    14     4    1
    34     2     1   ar
    35     4     5   ar
    36    34    32    1
    37    32    35    1
    38    32    33    1
    39     1     5   ar
    40     1     6    1
