@<TRIPOS>MOLECULE
mol_data/opt/m06hf/geoms/mol2/5ih5ih-5ih.out
 38 40 0 0 0
SMALL
GASTEIGER

@<TRIPOS>ATOM
      1 C          -1.4579   -1.7134    1.5550 C.ar    1  LIG1       -0.0190
      2 C          -0.7046   -1.8533    0.4347 C.ar    1  LIG1       -0.0222
      3 C          -0.3807   -0.5697   -0.1459 C.ar    1  LIG1        0.0430
      4 C          -0.8896    0.4804    0.5674 C.ar    1  LIG1        0.0471
      5 S          -1.7798   -0.0692    1.9533 S.2     1  LIG1       -0.0940
      6 H          -1.8376   -2.5060    2.1811 H       1  LIG1        0.0697
      7 C          -0.2416   -3.1592   -0.1655 C.3     1  LIG1       -0.0374
      8 H           0.8409   -3.1431   -0.3069 H       1  LIG1        0.0278
      9 H          -0.7143   -3.3295   -1.1365 H       1  LIG1        0.0278
     10 H          -0.5008   -3.9895    0.4895 H       1  LIG1        0.0278
     11 N           0.4065   -0.4502   -1.2971 N.pl3   1  LIG1       -0.3569
     12 H           0.2335   -1.1821   -1.9755 H       1  LIG1        0.1424
     13 H           0.3254    0.4675   -1.7225 H       1  LIG1        0.1424
     14 C          -0.7260    1.8990    0.2384 C.ar    1  LIG1        0.0330
     15 C           0.4554    2.5528    0.0231 C.ar    1  LIG1       -0.0139
     16 C           0.2423    3.9377   -0.3243 C.ar    1  LIG1        0.0436
     17 C          -1.0789    4.2918   -0.3357 C.ar    1  LIG1        0.0477
     18 S          -2.1000    2.9400    0.0495 S.2     1  LIG1       -0.0850
     19 C           1.8322    1.9559    0.1897 C.3     1  LIG1       -0.0368
     20 H           2.4520    2.6413    0.7711 H       1  LIG1        0.0278
     21 H           2.3133    1.7823   -0.7771 H       1  LIG1        0.0278
     22 H           1.7592    0.9990    0.7049 H       1  LIG1        0.0278
     23 N           1.3073    4.8156   -0.5571 N.pl3   1  LIG1       -0.3568
     24 H           2.0737    4.3877   -1.0623 H       1  LIG1        0.1424
     25 H           1.0028    5.6725   -1.0069 H       1  LIG1        0.1424
     26 C          -1.6022    5.6331   -0.6087 C.ar    1  LIG1        0.0324
     27 C          -1.2450    6.7912    0.0232 C.ar    1  LIG1       -0.0145
     28 C          -1.9370    7.9371   -0.5254 C.ar    1  LIG1        0.0352
     29 C          -2.7920    7.6042   -1.5295 C.ar    1  LIG1       -0.0028
     30 S          -2.7828    5.9081   -1.8507 S.2     1  LIG1       -0.0939
     31 H          -3.4348    8.2647   -2.0890 H       1  LIG1        0.0712
     32 C          -0.3146    6.8943    1.2074 C.3     1  LIG1       -0.0369
     33 H          -0.7759    7.5287    1.9665 H       1  LIG1        0.0278
     34 H           0.6475    7.3307    0.9238 H       1  LIG1        0.0278
     35 H          -0.1257    5.9034    1.6190 H       1  LIG1        0.0278
     36 N          -1.7635    9.2140    0.0346 N.pl3   1  LIG1       -0.3573
     37 H          -0.7933    9.4383    0.2206 H       1  LIG1        0.1423
     38 H          -2.2029    9.9513   -0.5005 H       1  LIG1        0.1423
@<TRIPOS>BOND
     1    31    29    1
     2    12    11    1
     3    30    29   ar
     4    30    26   ar
     5    13    11    1
     6    29    28   ar
     7    11     3    1
     8     9     7    1
     9    24    23    1
    10    25    23    1
    11    21    19    1
    12    26    17    1
    13    26    27   ar
    14    23    16    1
    15    28    27   ar
    16    28    36    1
    17    38    36    1
    18    17    16   ar
    19    17    18   ar
    20    16    15   ar
    21     8     7    1
    22     7     2    1
    23     7    10    1
    24     3     2   ar
    25     3     4   ar
    26    15    19    1
    27    15    14   ar
    28    27    32    1
    29    36    37    1
    30    18    14   ar
    31    19    22    1
    32    19    20    1
    33    14     4    1
    34     2     1   ar
    35     4     5   ar
    36    34    32    1
    37    32    35    1
    38    32    33    1
    39     1     5   ar
    40     1     6    1
