@<TRIPOS>MOLECULE
mol_data/opt/m06hf/geoms/mol2/5ih5ih-5ih-5ih-.out
 50 53 0 0 0
SMALL
GASTEIGER

@<TRIPOS>ATOM
      1 C          -0.9114   -1.5811    2.1607 C.ar    1  LIG1       -0.0190
      2 C          -0.6176   -1.8063    0.8547 C.ar    1  LIG1       -0.0222
      3 C          -0.4653   -0.5664    0.1268 C.ar    1  LIG1        0.0430
      4 C          -0.6365    0.5377    0.9150 C.ar    1  LIG1        0.0471
      5 S          -0.9945    0.0934    2.5561 S.2     1  LIG1       -0.0940
      6 H          -1.0766   -2.3255    2.9241 H       1  LIG1        0.0697
      7 C          -0.4557   -3.1576    0.2005 C.3     1  LIG1       -0.0374
      8 H           0.5148   -3.2176   -0.2955 H       1  LIG1        0.0278
      9 H          -1.2365   -3.3231   -0.5466 H       1  LIG1        0.0278
     10 H          -0.5234   -3.9491    0.9451 H       1  LIG1        0.0278
     11 N          -0.1358   -0.5382   -1.2328 N.pl3   1  LIG1       -0.3569
     12 H          -0.5804   -1.2751   -1.7668 H       1  LIG1        0.1424
     13 H          -0.3070    0.3706   -1.6503 H       1  LIG1        0.1424
     14 C          -0.5395    1.9313    0.4736 C.ar    1  LIG1        0.0330
     15 C           0.5091    2.5030   -0.1926 C.ar    1  LIG1       -0.0139
     16 C           0.2479    3.8869   -0.5096 C.ar    1  LIG1        0.0436
     17 C          -0.9656    4.3223   -0.0507 C.ar    1  LIG1        0.0477
     18 S          -1.8369    3.0484    0.7442 S.2     1  LIG1       -0.0850
     19 C           1.8217    1.8264   -0.5071 C.3     1  LIG1       -0.0368
     20 H           2.6431    2.4822   -0.2126 H       1  LIG1        0.0278
     21 H           1.9149    1.6059   -1.5747 H       1  LIG1        0.0278
     22 H           1.8905    0.8850    0.0366 H       1  LIG1        0.0278
     23 N           1.1885    4.6861   -1.1676 N.pl3   1  LIG1       -0.3568
     24 H           1.7157    4.1852   -1.8724 H       1  LIG1        0.1424
     25 H           0.7762    5.5318   -1.5474 H       1  LIG1        0.1424
     26 C          -1.4863    5.6859   -0.1766 C.ar    1  LIG1        0.0330
     27 C          -0.8461    6.8350    0.1997 C.ar    1  LIG1       -0.0139
     28 C          -1.6325    8.0062   -0.1054 C.ar    1  LIG1        0.0436
     29 C          -2.8426    7.7085   -0.6691 C.ar    1  LIG1        0.0477
     30 S          -3.0462    5.9965   -0.8675 S.2     1  LIG1       -0.0850
     31 C           0.4788    6.9074    0.9199 C.3     1  LIG1       -0.0368
     32 H           0.3932    7.6059    1.7545 H       1  LIG1        0.0278
     33 H           1.2796    7.2482    0.2572 H       1  LIG1        0.0278
     34 H           0.7501    5.9207    1.2932 H       1  LIG1        0.0278
     35 N          -1.1947    9.2960    0.2144 N.pl3   1  LIG1       -0.3568
     36 H          -0.2017    9.4282    0.0653 H       1  LIG1        0.1424
     37 H          -1.7388   10.0115   -0.2558 H       1  LIG1        0.1424
     38 C          -3.8665    8.6834   -1.0530 C.ar    1  LIG1        0.0324
     39 C          -4.4083    9.6526   -0.2570 C.ar    1  LIG1       -0.0145
     40 C          -5.3664   10.4638   -0.9763 C.ar    1  LIG1        0.0352
     41 C          -5.5221   10.0723   -2.2697 C.ar    1  LIG1       -0.0028
     42 S          -4.5148    8.7259   -2.6622 S.2     1  LIG1       -0.0939
     43 H          -6.1826   10.4966   -3.0084 H       1  LIG1        0.0712
     44 C          -4.1362    9.8320    1.2172 C.3     1  LIG1       -0.0369
     45 H          -5.0875    9.9442    1.7407 H       1  LIG1        0.0278
     46 H          -3.5255   10.7194    1.4075 H       1  LIG1        0.0278
     47 H          -3.5993    8.9667    1.6037 H       1  LIG1        0.0278
     48 N          -6.0883   11.4717   -0.3150 N.pl3   1  LIG1       -0.3573
     49 H          -5.5067   12.0558    0.2738 H       1  LIG1        0.1423
     50 H          -6.6504   12.0393   -0.9358 H       1  LIG1        0.1423
@<TRIPOS>BOND
     1    43    41    1
     2    42    41   ar
     3    42    38   ar
     4    41    40   ar
     5    24    23    1
     6    12    11    1
     7    13    11    1
     8    21    19    1
     9    25    23    1
    10    11     3    1
    11    23    16    1
    12    38    29    1
    13    38    39   ar
    14    40    48    1
    15    40    39   ar
    16    50    48    1
    17    30    29   ar
    18    30    26   ar
    19    29    28   ar
    20     9     7    1
    21    16    15   ar
    22    16    17   ar
    23    19    20    1
    24    19    15    1
    25    19    22    1
    26    48    49    1
    27     8     7    1
    28    39    44    1
    29    37    35    1
    30    15    14   ar
    31    26    17    1
    32    26    27   ar
    33    28    27   ar
    34    28    35    1
    35    17    18   ar
    36    36    35    1
    37     3     2   ar
    38     3     4   ar
    39    27    31    1
    40     7     2    1
    41     7    10    1
    42    33    31    1
    43    14    18   ar
    44    14     4    1
    45     2     1   ar
    46     4     5   ar
    47    31    34    1
    48    31    32    1
    49    44    46    1
    50    44    47    1
    51    44    45    1
    52     1     5   ar
    53     1     6    1
