@<TRIPOS>MOLECULE
mol_data/opt/m06hf/geoms/mol2/5ih5ih-5ih5ih-.out
 50 53 0 0 0
SMALL
GASTEIGER

@<TRIPOS>ATOM
      1 C          -0.9030   -1.5778    2.1715 C.ar    1  LIG1       -0.0190
      2 C          -0.6177   -1.8055    0.8641 C.ar    1  LIG1       -0.0222
      3 C          -0.4689   -0.5671    0.1331 C.ar    1  LIG1        0.0430
      4 C          -0.6341    0.5386    0.9205 C.ar    1  LIG1        0.0471
      5 S          -0.9821    0.0974    2.5645 S.2     1  LIG1       -0.0940
      6 H          -1.0640   -2.3207    2.9372 H       1  LIG1        0.0697
      7 C          -0.4611   -3.1581    0.2112 C.3     1  LIG1       -0.0374
      8 H           0.5062   -3.2198   -0.2908 H       1  LIG1        0.0278
      9 H          -1.2468   -3.3242   -0.5307 H       1  LIG1        0.0278
     10 H          -0.5248   -3.9483    0.9576 H       1  LIG1        0.0278
     11 N          -0.1480   -0.5414   -1.2286 N.pl3   1  LIG1       -0.3569
     12 H          -0.5966   -1.2788   -1.7585 H       1  LIG1        0.1424
     13 H          -0.3210    0.3668   -1.6465 H       1  LIG1        0.1424
     14 C          -0.5387    1.9313    0.4761 C.ar    1  LIG1        0.0330
     15 C           0.5062    2.5010   -0.1977 C.ar    1  LIG1       -0.0139
     16 C           0.2442    3.8845   -0.5154 C.ar    1  LIG1        0.0436
     17 C          -0.9660    4.3218   -0.0495 C.ar    1  LIG1        0.0477
     18 S          -1.8334    3.0501    0.7530 S.2     1  LIG1       -0.0850
     19 C           1.8161    1.8226   -0.5193 C.3     1  LIG1       -0.0368
     20 H           2.6400    2.4783   -0.2311 H       1  LIG1        0.0278
     21 H           1.9024    1.6003   -1.5871 H       1  LIG1        0.0278
     22 H           1.8876    0.8821    0.0255 H       1  LIG1        0.0278
     23 N           1.1814    4.6818   -1.1808 N.pl3   1  LIG1       -0.3568
     24 H           1.7037    4.1792   -1.8880 H       1  LIG1        0.1424
     25 H           0.7674    5.5272   -1.5594 H       1  LIG1        0.1424
     26 C          -1.4862    5.6856   -0.1745 C.ar    1  LIG1        0.0330
     27 C          -0.8427    6.8349    0.1957 C.ar    1  LIG1       -0.0139
     28 C          -1.6300    8.0062   -0.1064 C.ar    1  LIG1        0.0436
     29 C          -2.8438    7.7087   -0.6618 C.ar    1  LIG1        0.0477
     30 S          -3.0502    5.9965   -0.8560 S.2     1  LIG1       -0.0850
     31 C           0.4868    6.9072    0.9075 C.3     1  LIG1       -0.0368
     32 H           0.4071    7.6073    1.7413 H       1  LIG1        0.0278
     33 H           1.2837    7.2462    0.2391 H       1  LIG1        0.0278
     34 H           0.7596    5.9210    1.2807 H       1  LIG1        0.0278
     35 N          -1.1890    9.2962    0.2085 N.pl3   1  LIG1       -0.3568
     36 H          -0.1969    9.4273    0.0529 H       1  LIG1        0.1424
     37 H          -1.7355   10.0113   -0.2595 H       1  LIG1        0.1424
     38 C          -3.8693    8.6838   -1.0410 C.ar    1  LIG1        0.0324
     39 C          -4.4053    9.6548   -0.2433 C.ar    1  LIG1       -0.0145
     40 C          -5.3671   10.4656   -0.9578 C.ar    1  LIG1        0.0352
     41 C          -5.5313   10.0720   -2.2495 C.ar    1  LIG1       -0.0028
     42 S          -4.5277    8.7242   -2.6461 S.2     1  LIG1       -0.0939
     43 H          -6.1962   10.4957   -2.9849 H       1  LIG1        0.0712
     44 C          -4.1237    9.8365    1.2289 C.3     1  LIG1       -0.0369
     45 H          -5.0716    9.9504    1.7582 H       1  LIG1        0.0278
     46 H          -3.5111   10.7237    1.4139 H       1  LIG1        0.0278
     47 H          -3.5851    8.9714    1.6135 H       1  LIG1        0.0278
     48 N          -6.0840   11.4753   -0.2937 N.pl3   1  LIG1       -0.3573
     49 H          -5.4981   12.0599    0.2904 H       1  LIG1        0.1423
     50 H          -6.6495   12.0423   -0.9119 H       1  LIG1        0.1423
@<TRIPOS>BOND
     1    43    41    1
     2    42    41   ar
     3    42    38   ar
     4    41    40   ar
     5    24    23    1
     6    12    11    1
     7    13    11    1
     8    21    19    1
     9    25    23    1
    10    11     3    1
    11    23    16    1
    12    38    29    1
    13    38    39   ar
    14    40    48    1
    15    40    39   ar
    16    50    48    1
    17    30    29   ar
    18    30    26   ar
    19    29    28   ar
    20     9     7    1
    21    19    20    1
    22    19    15    1
    23    19    22    1
    24    16    15   ar
    25    16    17   ar
    26    48    49    1
    27     8     7    1
    28    37    35    1
    29    39    44    1
    30    15    14   ar
    31    26    17    1
    32    26    27   ar
    33    28    27   ar
    34    28    35    1
    35    17    18   ar
    36    36    35    1
    37     3     2   ar
    38     3     4   ar
    39    27    31    1
    40     7     2    1
    41     7    10    1
    42    33    31    1
    43    14    18   ar
    44    14     4    1
    45     2     1   ar
    46    31    34    1
    47    31    32    1
    48     4     5   ar
    49    44    46    1
    50    44    47    1
    51    44    45    1
    52     1     5   ar
    53     1     6    1
