@<TRIPOS>MOLECULE
mol_data/opt/m06hf/geoms/mol2/5ih5ih5ih5ih.out
 50 53 0 0 0
SMALL
GASTEIGER

@<TRIPOS>ATOM
      1 C          -0.9220   -1.5839    2.1452 C.ar    1  LIG1       -0.0190
      2 C          -0.6252   -1.8079    0.8397 C.ar    1  LIG1       -0.0222
      3 C          -0.4701   -0.5674    0.1135 C.ar    1  LIG1        0.0430
      4 C          -0.6423    0.5360    0.9025 C.ar    1  LIG1        0.0471
      5 S          -1.0046    0.0902    2.5422 S.2     1  LIG1       -0.0940
      6 H          -1.0896   -2.3290    2.9074 H       1  LIG1        0.0697
      7 C          -0.4628   -3.1586    0.1844 C.3     1  LIG1       -0.0374
      8 H           0.5088   -3.2189   -0.3093 H       1  LIG1        0.0278
      9 H          -1.2420   -3.3227   -0.5648 H       1  LIG1        0.0278
     10 H          -0.5330   -3.9509    0.9280 H       1  LIG1        0.0278
     11 N          -0.1373   -0.5380   -1.2452 N.pl3   1  LIG1       -0.3569
     12 H          -0.5812   -1.2739   -1.7811 H       1  LIG1        0.1424
     13 H          -0.3068    0.3714   -1.6621 H       1  LIG1        0.1424
     14 C          -0.5431    1.9300    0.4629 C.ar    1  LIG1        0.0330
     15 C           0.5076    2.5016   -0.2002 C.ar    1  LIG1       -0.0139
     16 C           0.2483    3.8860   -0.5162 C.ar    1  LIG1        0.0436
     17 C          -0.9660    4.3219   -0.0598 C.ar    1  LIG1        0.0477
     18 S          -1.8402    3.0479    0.7316 S.2     1  LIG1       -0.0850
     19 C           1.8204    1.8242   -0.5122 C.3     1  LIG1       -0.0368
     20 H           2.6417    2.4791   -0.2149 H       1  LIG1        0.0278
     21 H           1.9160    1.6049   -1.5798 H       1  LIG1        0.0278
     22 H           1.8871    0.8822    0.0307 H       1  LIG1        0.0278
     23 N           1.1912    4.6851   -1.1711 N.pl3   1  LIG1       -0.3568
     24 H           1.7197    4.1846   -1.8751 H       1  LIG1        0.1424
     25 H           0.7805    5.5316   -1.5510 H       1  LIG1        0.1424
     26 C          -1.4852    5.6860   -0.1855 C.ar    1  LIG1        0.0330
     27 C          -0.8450    6.8343    0.1936 C.ar    1  LIG1       -0.0139
     28 C          -1.6297    8.0065   -0.1121 C.ar    1  LIG1        0.0436
     29 C          -2.8386    7.7104   -0.6790 C.ar    1  LIG1        0.0477
     30 S          -3.0432    5.9988   -0.8797 S.2     1  LIG1       -0.0850
     31 C           0.4783    6.9047    0.9172 C.3     1  LIG1       -0.0368
     32 H           0.3912    7.6024    1.7523 H       1  LIG1        0.0278
     33 H           1.2809    7.2456    0.2567 H       1  LIG1        0.0278
     34 H           0.7478    5.9174    1.2900 H       1  LIG1        0.0278
     35 N          -1.1916    9.2955    0.2102 N.pl3   1  LIG1       -0.3568
     36 H          -0.1982    9.4271    0.0637 H       1  LIG1        0.1424
     37 H          -1.7340   10.0119   -0.2605 H       1  LIG1        0.1424
     38 C          -3.8608    8.6865   -1.0643 C.ar    1  LIG1        0.0324
     39 C          -4.4038    9.6552   -0.2686 C.ar    1  LIG1       -0.0145
     40 C          -5.3594   10.4680   -0.9893 C.ar    1  LIG1        0.0352
     41 C          -5.5123   10.0781   -2.2835 C.ar    1  LIG1       -0.0028
     42 S          -4.5051    8.7314   -2.6751 S.2     1  LIG1       -0.0939
     43 H          -6.1707   10.5038   -3.0234 H       1  LIG1        0.0712
     44 C          -4.1352    9.8328    1.2065 C.3     1  LIG1       -0.0369
     45 H          -5.0876    9.9452    1.7277 H       1  LIG1        0.0278
     46 H          -3.5243   10.7195    1.3993 H       1  LIG1        0.0278
     47 H          -3.5999    8.9667    1.5933 H       1  LIG1        0.0278
     48 N          -6.0822   11.4758   -0.3286 N.pl3   1  LIG1       -0.3573
     49 H          -5.5015   12.0588    0.2622 H       1  LIG1        0.1423
     50 H          -6.6422   12.0445   -0.9502 H       1  LIG1        0.1423
@<TRIPOS>BOND
     1    43    41    1
     2    42    41   ar
     3    42    38   ar
     4    41    40   ar
     5    24    23    1
     6    12    11    1
     7    13    11    1
     8    21    19    1
     9    25    23    1
    10    11     3    1
    11    23    16    1
    12    38    29    1
    13    38    39   ar
    14    40    48    1
    15    40    39   ar
    16    50    48    1
    17    30    29   ar
    18    30    26   ar
    19    29    28   ar
    20     9     7    1
    21    16    15   ar
    22    16    17   ar
    23    19    20    1
    24    19    15    1
    25    19    22    1
    26    48    49    1
    27     8     7    1
    28    39    44    1
    29    37    35    1
    30    15    14   ar
    31    26    17    1
    32    26    27   ar
    33    28    27   ar
    34    28    35    1
    35    17    18   ar
    36    36    35    1
    37     3     2   ar
    38     3     4   ar
    39     7     2    1
    40     7    10    1
    41    27    31    1
    42    33    31    1
    43    14    18   ar
    44    14     4    1
    45     2     1   ar
    46     4     5   ar
    47    31    34    1
    48    31    32    1
    49    44    46    1
    50    44    47    1
    51    44    45    1
    52     1     5   ar
    53     1     6    1
