@<TRIPOS>MOLECULE
mol_data/opt/m06hf/geoms/mol2/5ih5ih-.out
 26 27 0 0 0
SMALL
GASTEIGER

@<TRIPOS>ATOM
      1 C          -1.8766   -1.7466    0.8832 C.ar    1  LIG1       -0.0190
      2 C          -0.7385   -1.8185    0.1470 C.ar    1  LIG1       -0.0222
      3 C          -0.3057   -0.5082   -0.2843 C.ar    1  LIG1        0.0430
      4 C          -1.1263    0.4942    0.1527 C.ar    1  LIG1        0.0470
      5 S          -2.4421   -0.1338    1.0987 S.2     1  LIG1       -0.0940
      6 H          -2.4135   -2.5713    1.3252 H       1  LIG1        0.0697
      7 C           0.0154   -3.0794   -0.2019 C.3     1  LIG1       -0.0374
      8 H           1.0631   -2.9784    0.0871 H       1  LIG1        0.0278
      9 H          -0.0293   -3.2751   -1.2768 H       1  LIG1        0.0278
     10 H          -0.4154   -3.9337    0.3180 H       1  LIG1        0.0278
     11 N           0.8603   -0.3184   -1.0356 N.pl3   1  LIG1       -0.3569
     12 H           1.0119   -1.0443   -1.7255 H       1  LIG1        0.1424
     13 H           0.8923    0.6016   -1.4623 H       1  LIG1        0.1424
     14 C          -0.9504    1.9249   -0.1121 C.ar    1  LIG1        0.0324
     15 C           0.1615    2.6748    0.1487 C.ar    1  LIG1       -0.0145
     16 C          -0.0042    4.0470   -0.2794 C.ar    1  LIG1        0.0352
     17 C          -1.2256    4.2832   -0.8286 C.ar    1  LIG1       -0.0028
     18 S          -2.2074    2.8619   -0.8567 S.2     1  LIG1       -0.0939
     19 H          -1.6050    5.2187   -1.2065 H       1  LIG1        0.0712
     20 C           1.3953    2.1895    0.8708 C.3     1  LIG1       -0.0369
     21 H           1.6669    2.9172    1.6378 H       1  LIG1        0.0278
     22 H           2.2403    2.0708    0.1865 H       1  LIG1        0.0278
     23 H           1.1964    1.2230    1.3321 H       1  LIG1        0.0278
     24 N           1.0008    4.9997   -0.0349 N.pl3   1  LIG1       -0.3573
     25 H           1.9264    4.6662   -0.2773 H       1  LIG1        0.1423
     26 H           0.8204    5.8924   -0.4753 H       1  LIG1        0.1423
@<TRIPOS>BOND
     1    12    11    1
     2    13    11    1
     3     9     7    1
     4    19    17    1
     5    11     3    1
     6    18    17   ar
     7    18    14   ar
     8    17    16   ar
     9    26    24    1
    10     3     2   ar
    11     3     4   ar
    12    16    24    1
    13    16    15   ar
    14    25    24    1
    15     7     8    1
    16     7     2    1
    17     7    10    1
    18    14    15   ar
    19    14     4    1
    20     2     1   ar
    21    15    20    1
    22     4     5   ar
    23    22    20    1
    24    20    23    1
    25    20    21    1
    26     1     5   ar
    27     1     6    1
