@<TRIPOS>MOLECULE
mol_data/opt/m06hf/geoms/mol2/5ii.out
 15 15 0 0 0
SMALL
GASTEIGER

@<TRIPOS>ATOM
      1 C          -2.1631   -1.6856    0.0796 C.ar    1  LIG1       -0.0212
      2 C          -0.8057   -1.6750    0.0136 C.ar    1  LIG1       -0.0405
      3 C          -0.2749   -0.3290    0.0136 C.ar    1  LIG1       -0.0405
      4 C          -1.2597    0.6052    0.0796 C.ar    1  LIG1       -0.0212
      5 S          -2.8294   -0.0993    0.1436 S.2     1  LIG1       -0.1045
      6 H          -2.8115   -2.5478    0.0945 H       1  LIG1        0.0696
      7 H          -1.1452    1.6780    0.0946 H       1  LIG1        0.0696
      8 C           0.0650   -2.9094   -0.0529 C.3     1  LIG1       -0.0390
      9 H           0.7476   -2.9421    0.7987 H       1  LIG1        0.0278
     10 H           0.6611   -2.9080   -0.9677 H       1  LIG1        0.0278
     11 H          -0.5502   -3.8083   -0.0402 H       1  LIG1        0.0278
     12 C           1.2039   -0.0211   -0.0529 C.3     1  LIG1       -0.0390
     13 H           1.3678    1.0557   -0.0402 H       1  LIG1        0.0278
     14 H           1.6386   -0.4291   -0.9676 H       1  LIG1        0.0278
     15 H           1.7251   -0.4630    0.7988 H       1  LIG1        0.0278
@<TRIPOS>BOND
     1    10     8    1
     2    14    12    1
     3     8    11    1
     4     8     2    1
     5     8     9    1
     6    12    13    1
     7    12     3    1
     8    12    15    1
     9     2     3   ar
    10     2     1   ar
    11     3     4   ar
    12     1     6    1
    13     1     5   ar
    14     4     7    1
    15     4     5   ar
