@<TRIPOS>MOLECULE
mol_data/opt/m06hf/geoms/mol2/5il.out
 16 16 0 0 0
SMALL
GASTEIGER

@<TRIPOS>ATOM
      1 C          -2.2629   -1.6778    0.1617 C.ar    1  LIG1       -0.0178
      2 C          -1.0107   -2.1070   -0.1260 C.ar    1  LIG1       -0.0018
      3 C          -0.0403   -1.0643    0.1163 C.ar    1  LIG1        0.1300
      4 C          -0.5823    0.0978    0.5710 C.ar    1  LIG1        0.0176
      5 S          -2.3002   -0.0437    0.7183 S.2     1  LIG1       -0.1011
      6 H          -3.1801   -2.2391    0.0762 H       1  LIG1        0.0697
      7 H          -0.0886    1.0194    0.8266 H       1  LIG1        0.0730
      8 C          -0.6047   -3.4689   -0.6328 C.3     1  LIG1       -0.0357
      9 H           0.0905   -3.9332    0.0678 H       1  LIG1        0.0279
     10 H          -0.0990   -3.3711   -1.5943 H       1  LIG1        0.0279
     11 H          -1.4795   -4.1068   -0.7488 H       1  LIG1        0.0279
     12 O           1.2637   -1.3405   -0.1255 O.3     1  LIG1       -0.4943
     13 C           2.1756   -0.2891    0.1261 C.3     1  LIG1        0.0788
     14 H           3.1621   -0.6742   -0.1165 H       1  LIG1        0.0660
     15 H           1.9442    0.5727   -0.5061 H       1  LIG1        0.0660
     16 H           2.1362    0.0029    1.1793 H       1  LIG1        0.0660
@<TRIPOS>BOND
     1    10     8    1
     2    11     8    1
     3     8     2    1
     4     8     9    1
     5    15    13    1
     6     2     3   ar
     7     2     1   ar
     8    12     3    1
     9    12    13    1
    10    14    13    1
    11     6     1    1
    12     3     4   ar
    13    13    16    1
    14     1     5   ar
    15     4     5   ar
    16     4     7    1
