@<TRIPOS>MOLECULE
mol_data/opt/m06hf/geoms/mol2/5il5il-5il-5il-.out
 58 61 0 0 0
SMALL
GASTEIGER

@<TRIPOS>ATOM
      1 C          -1.2482   -2.0860    2.1809 C.ar    1  LIG1       -0.0172
      2 C          -0.4920   -2.2139    1.0609 C.ar    1  LIG1       -0.0011
      3 C          -0.1207   -0.9231    0.5421 C.ar    1  LIG1        0.1382
      4 C          -0.5936    0.1291    1.2747 C.ar    1  LIG1        0.0681
      5 S          -1.5164   -0.4412    2.6265 S.2     1  LIG1       -0.0921
      6 H          -1.6710   -2.8786    2.7779 H       1  LIG1        0.0697
      7 C          -0.0687   -3.4989    0.3918 C.3     1  LIG1       -0.0357
      8 H           1.0193   -3.5590    0.3567 H       1  LIG1        0.0279
      9 H          -0.4410   -3.5287   -0.6332 H       1  LIG1        0.0279
     10 H          -0.4597   -4.3563    0.9374 H       1  LIG1        0.0279
     11 O           0.6294   -0.8173   -0.5937 O.3     1  LIG1       -0.4937
     12 C          -0.0786   -0.2863   -1.7158 C.3     1  LIG1        0.0789
     13 H           0.5980   -0.3639   -2.5635 H       1  LIG1        0.0660
     14 H          -0.9803   -0.8741   -1.8992 H       1  LIG1        0.0660
     15 H          -0.3434    0.7581   -1.5384 H       1  LIG1        0.0660
     16 C          -0.3793    1.5516    1.0049 C.ar    1  LIG1        0.0365
     17 C           0.8003    2.1574    0.6738 C.ar    1  LIG1        0.0072
     18 C           0.6017    3.5597    0.4255 C.ar    1  LIG1        0.1388
     19 C          -0.6878    3.9855    0.5799 C.ar    1  LIG1        0.0687
     20 S          -1.7142    2.6628    1.0233 S.2     1  LIG1       -0.0831
     21 C           2.1535    1.5001    0.5749 C.3     1  LIG1       -0.0351
     22 H           2.9184    2.2180    0.8686 H       1  LIG1        0.0279
     23 H           2.3451    1.1717   -0.4488 H       1  LIG1        0.0279
     24 H           2.1892    0.6232    1.2202 H       1  LIG1        0.0279
     25 O           1.6396    4.3715    0.0691 O.3     1  LIG1       -0.4937
     26 C           1.6280    4.7464   -1.3088 C.3     1  LIG1        0.0789
     27 H           2.5158    5.3546   -1.4655 H       1  LIG1        0.0660
     28 H           1.6683    3.8539   -1.9373 H       1  LIG1        0.0660
     29 H           0.7296    5.3243   -1.5355 H       1  LIG1        0.0660
     30 C          -1.1770    5.3530    0.3961 C.ar    1  LIG1        0.0365
     31 C          -0.6057    6.5020    0.8655 C.ar    1  LIG1        0.0072
     32 C          -1.3351    7.6560    0.4128 C.ar    1  LIG1        0.1388
     33 C          -2.4216    7.3706   -0.3654 C.ar    1  LIG1        0.0687
     34 S          -2.5813    5.6609   -0.5793 S.2     1  LIG1       -0.0831
     35 C           0.6143    6.6114    1.7451 C.3     1  LIG1       -0.0351
     36 H           0.5086    7.4818    2.3916 H       1  LIG1        0.0279
     37 H           1.5132    6.7220    1.1351 H       1  LIG1        0.0279
     38 H           0.7249    5.7073    2.3427 H       1  LIG1        0.0279
     39 O          -0.9420    8.9186    0.7522 O.3     1  LIG1       -0.4937
     40 C          -0.3300    9.6353   -0.3209 C.3     1  LIG1        0.0789
     41 H          -0.0108   10.5889    0.0933 H       1  LIG1        0.0660
     42 H           0.5332    9.0801   -0.6947 H       1  LIG1        0.0660
     43 H          -1.0509    9.7942   -1.1258 H       1  LIG1        0.0660
     44 C          -3.3567    8.3335   -0.9500 C.ar    1  LIG1        0.0359
     45 C          -3.9302    9.4081   -0.3324 C.ar    1  LIG1        0.0066
     46 C          -4.7853   10.1255   -1.2468 C.ar    1  LIG1        0.1306
     47 C          -4.8392    9.5901   -2.4938 C.ar    1  LIG1        0.0183
     48 S          -3.8417    8.1934   -2.6143 S.2     1  LIG1       -0.0920
     49 H          -5.4299    9.9402   -3.3240 H       1  LIG1        0.0730
     50 C          -3.7799    9.7938    1.1183 C.3     1  LIG1       -0.0351
     51 H          -4.6821   10.3154    1.4383 H       1  LIG1        0.0279
     52 H          -2.9113   10.4397    1.2615 H       1  LIG1        0.0279
     53 H          -3.6298    8.9004    1.7245 H       1  LIG1        0.0279
     54 O          -5.5032   11.2234   -0.8615 O.3     1  LIG1       -0.4943
     55 C          -4.7582   12.4360   -0.9274 C.3     1  LIG1        0.0788
     56 H          -5.4206   13.2243   -0.5783 H       1  LIG1        0.0660
     57 H          -3.8751   12.3791   -0.2867 H       1  LIG1        0.0660
     58 H          -4.4501   12.6304   -1.9567 H       1  LIG1        0.0660
@<TRIPOS>BOND
     1    49    47    1
     2    48    47   ar
     3    48    44   ar
     4    13    12    1
     5    47    46   ar
     6    58    55    1
     7    28    26    1
     8    14    12    1
     9    12    15    1
    10    12    11    1
    11    29    26    1
    12    27    26    1
    13    26    25    1
    14    46    54    1
    15    46    45   ar
    16    43    40    1
    17    44    33    1
    18    44    45   ar
    19    55    54    1
    20    55    56    1
    21    55    57    1
    22    42    40    1
    23     9     7    1
    24    11     3    1
    25    34    33   ar
    26    34    30   ar
    27    23    21    1
    28    33    32   ar
    29    45    50    1
    30    40    41    1
    31    40    39    1
    32    25    18    1
    33     8     7    1
    34     7    10    1
    35     7     2    1
    36    30    19    1
    37    30    31   ar
    38    32    39    1
    39    32    31   ar
    40    18    19   ar
    41    18    17   ar
    42     3     2   ar
    43     3     4   ar
    44    21    17    1
    45    21    22    1
    46    21    24    1
    47    19    20   ar
    48    17    16   ar
    49    31    35    1
    50    16    20   ar
    51    16     4    1
    52     2     1   ar
    53    50    52    1
    54    50    51    1
    55    50    53    1
    56    37    35    1
    57     4     5   ar
    58    35    38    1
    59    35    36    1
    60     1     5   ar
    61     1     6    1
