@<TRIPOS>MOLECULE
mol_data/opt/m06hf/geoms/mol2/5il5il5il5il.out
 58 61 0 0 0
SMALL
GASTEIGER

@<TRIPOS>ATOM
      1 C          -1.2339   -2.0752    2.2066 C.ar    1  LIG1       -0.0172
      2 C          -0.4818   -2.2081    1.0844 C.ar    1  LIG1       -0.0011
      3 C          -0.1136   -0.9196    0.5578 C.ar    1  LIG1        0.1382
      4 C          -0.5847    0.1359    1.2869 C.ar    1  LIG1        0.0681
      5 S          -1.5018   -0.4283    2.6450 S.2     1  LIG1       -0.0921
      6 H          -1.6538   -2.8651    2.8093 H       1  LIG1        0.0697
      7 C          -0.0599   -3.4960    0.4203 C.3     1  LIG1       -0.0357
      8 H           1.0279   -3.5553    0.3812 H       1  LIG1        0.0279
      9 H          -0.4362   -3.5313   -0.6032 H       1  LIG1        0.0279
     10 H          -0.4482   -4.3510    0.9716 H       1  LIG1        0.0279
     11 O           0.6321   -0.8188   -0.5814 O.3     1  LIG1       -0.4937
     12 C          -0.0806   -0.2941   -1.7034 C.3     1  LIG1        0.0789
     13 H           0.5927   -0.3753   -2.5532 H       1  LIG1        0.0660
     14 H          -0.9825   -0.8835   -1.8805 H       1  LIG1        0.0660
     15 H          -0.3457    0.7510   -1.5303 H       1  LIG1        0.0660
     16 C          -0.3725    1.5573    1.0091 C.ar    1  LIG1        0.0365
     17 C           0.8052    2.1624    0.6705 C.ar    1  LIG1        0.0072
     18 C           0.6045    3.5632    0.4160 C.ar    1  LIG1        0.1388
     19 C          -0.6848    3.9887    0.5732 C.ar    1  LIG1        0.0687
     20 S          -1.7083    2.6674    1.0271 S.2     1  LIG1       -0.0831
     21 C           2.1587    1.5057    0.5698 C.3     1  LIG1       -0.0351
     22 H           2.9240    2.2257    0.8569 H       1  LIG1        0.0279
     23 H           2.3466    1.1724   -0.4530 H       1  LIG1        0.0279
     24 H           2.1975    0.6321    1.2193 H       1  LIG1        0.0279
     25 O           1.6403    4.3741    0.0515 O.3     1  LIG1       -0.4937
     26 C           1.6231    4.7421   -1.3281 C.3     1  LIG1        0.0789
     27 H           2.5099    5.3503   -1.4913 H       1  LIG1        0.0660
     28 H           1.6618    3.8465   -1.9524 H       1  LIG1        0.0660
     29 H           0.7234    5.3181   -1.5542 H       1  LIG1        0.0660
     30 C          -1.1759    5.3548    0.3843 C.ar    1  LIG1        0.0365
     31 C          -0.6037    6.5066    0.8459 C.ar    1  LIG1        0.0072
     32 C          -1.3359    7.6577    0.3902 C.ar    1  LIG1        0.1388
     33 C          -2.4251    7.3676   -0.3824 C.ar    1  LIG1        0.0687
     34 S          -2.5841    5.6567   -0.5872 S.2     1  LIG1       -0.0831
     35 C           0.6195    6.6215    1.7202 C.3     1  LIG1       -0.0351
     36 H           0.5155    7.4950    2.3627 H       1  LIG1        0.0279
     37 H           1.5160    6.7298    1.1063 H       1  LIG1        0.0279
     38 H           0.7331    5.7205    2.3219 H       1  LIG1        0.0279
     39 O          -0.9426    8.9224    0.7218 O.3     1  LIG1       -0.4937
     40 C          -0.3352    9.6342   -0.3572 C.3     1  LIG1        0.0789
     41 H          -0.0153   10.5902    0.0511 H       1  LIG1        0.0660
     42 H           0.5271    9.0778   -0.7314 H       1  LIG1        0.0660
     43 H          -1.0592    9.7885   -1.1602 H       1  LIG1        0.0660
     44 C          -3.3632    8.3268   -0.9682 C.ar    1  LIG1        0.0359
     45 C          -3.9353    9.4040   -0.3539 C.ar    1  LIG1        0.0066
     46 C          -4.7944   10.1160   -1.2686 C.ar    1  LIG1        0.1306
     47 C          -4.8526    9.5744   -2.5127 C.ar    1  LIG1        0.0183
     48 S          -3.8544    8.1780   -2.6300 S.2     1  LIG1       -0.0920
     49 H          -5.4468    9.9199   -3.3424 H       1  LIG1        0.0730
     50 C          -3.7797    9.7970    1.0943 C.3     1  LIG1       -0.0351
     51 H          -4.6812   10.3195    1.4151 H       1  LIG1        0.0279
     52 H          -2.9112   10.4444    1.2309 H       1  LIG1        0.0279
     53 H          -3.6266    8.9068    1.7044 H       1  LIG1        0.0279
     54 O          -5.5119   11.2153   -0.8861 O.3     1  LIG1       -0.4943
     55 C          -4.7681   12.4282   -0.9609 C.3     1  LIG1        0.0788
     56 H          -5.4299   13.2177   -0.6132 H       1  LIG1        0.0660
     57 H          -3.8825   12.3752   -0.3233 H       1  LIG1        0.0660
     58 H          -4.4641   12.6176   -1.9923 H       1  LIG1        0.0660
@<TRIPOS>BOND
     1    49    47    1
     2    48    47   ar
     3    48    44   ar
     4    13    12    1
     5    47    46   ar
     6    58    55    1
     7    28    26    1
     8    14    12    1
     9    12    15    1
    10    12    11    1
    11    29    26    1
    12    27    26    1
    13    26    25    1
    14    46    54    1
    15    46    45   ar
    16    43    40    1
    17    44    33    1
    18    44    45   ar
    19    55    54    1
    20    55    56    1
    21    55    57    1
    22    42    40    1
    23     9     7    1
    24    34    33   ar
    25    34    30   ar
    26    11     3    1
    27    23    21    1
    28    33    32   ar
    29    40    41    1
    30    40    39    1
    31    45    50    1
    32    25    18    1
    33     8     7    1
    34    30    19    1
    35    30    31   ar
    36    32    39    1
    37    32    31   ar
    38    18    19   ar
    39    18    17   ar
    40     7    10    1
    41     7     2    1
    42     3     2   ar
    43     3     4   ar
    44    21    17    1
    45    21    22    1
    46    21    24    1
    47    19    20   ar
    48    17    16   ar
    49    31    35    1
    50    16    20   ar
    51    16     4    1
    52     2     1   ar
    53    50    52    1
    54    50    51    1
    55    50    53    1
    56    37    35    1
    57     4     5   ar
    58    35    38    1
    59    35    36    1
    60     1     5   ar
    61     1     6    1
