@<TRIPOS>MOLECULE
mol_data/opt/m06hf/geoms/mol2/5il5il5il-5il.out
 58 61 0 0 0
SMALL
GASTEIGER

@<TRIPOS>ATOM
      1 C          -1.2582   -2.0799    2.1864 C.ar    1  LIG1       -0.0172
      2 C          -0.4965   -2.2109    1.0704 C.ar    1  LIG1       -0.0011
      3 C          -0.1229   -0.9215    0.5498 C.ar    1  LIG1        0.1382
      4 C          -0.5994    0.1327    1.2771 C.ar    1  LIG1        0.0681
      5 S          -1.5286   -0.4338    2.6261 S.2     1  LIG1       -0.0921
      6 H          -1.6838   -2.8708    2.7837 H       1  LIG1        0.0697
      7 C          -0.0700   -3.4977    0.4070 C.3     1  LIG1       -0.0357
      8 H           1.0181   -3.5578    0.3772 H       1  LIG1        0.0279
      9 H          -0.4374   -3.5304   -0.6197 H       1  LIG1        0.0279
     10 H          -0.4635   -4.3536    0.9531 H       1  LIG1        0.0279
     11 O           0.6327   -0.8188   -0.5828 O.3     1  LIG1       -0.4937
     12 C          -0.0700   -0.2911   -1.7097 C.3     1  LIG1        0.0789
     13 H           0.6106   -0.3710   -2.5539 H       1  LIG1        0.0660
     14 H          -0.9708   -0.8794   -1.8958 H       1  LIG1        0.0660
     15 H          -0.3357    0.7538   -1.5365 H       1  LIG1        0.0660
     16 C          -0.3838    1.5545    1.0043 C.ar    1  LIG1        0.0365
     17 C           0.7973    2.1595    0.6772 C.ar    1  LIG1        0.0072
     18 C           0.5998    3.5610    0.4240 C.ar    1  LIG1        0.1388
     19 C          -0.6905    3.9871    0.5710 C.ar    1  LIG1        0.0687
     20 S          -1.7189    2.6657    1.0132 S.2     1  LIG1       -0.0831
     21 C           2.1510    1.5020    0.5866 C.3     1  LIG1       -0.0351
     22 H           2.9144    2.2208    0.8819 H       1  LIG1        0.0279
     23 H           2.3474    1.1707   -0.4352 H       1  LIG1        0.0279
     24 H           2.1836    0.6269    1.2346 H       1  LIG1        0.0279
     25 O           1.6393    4.3719    0.0702 O.3     1  LIG1       -0.4937
     26 C           1.6343    4.7429   -1.3087 C.3     1  LIG1        0.0789
     27 H           2.5229    5.3507   -1.4629 H       1  LIG1        0.0660
     28 H           1.6777    3.8486   -1.9345 H       1  LIG1        0.0660
     29 H           0.7370    5.3201   -1.5413 H       1  LIG1        0.0660
     30 C          -1.1789    5.3541    0.3810 C.ar    1  LIG1        0.0365
     31 C          -0.6099    6.5044    0.8500 C.ar    1  LIG1        0.0072
     32 C          -1.3372    7.6571    0.3905 C.ar    1  LIG1        0.1388
     33 C          -2.4199    7.3695   -0.3921 C.ar    1  LIG1        0.0687
     34 S          -2.5784    5.6592   -0.6020 S.2     1  LIG1       -0.0831
     35 C           0.6059    6.6164    1.7350 C.3     1  LIG1       -0.0351
     36 H           0.4971    7.4887    2.3786 H       1  LIG1        0.0279
     37 H           1.5077    6.7254    1.1291 H       1  LIG1        0.0279
     38 H           0.7137    5.7141    2.3357 H       1  LIG1        0.0279
     39 O          -0.9457    8.9207    0.7283 O.3     1  LIG1       -0.4937
     40 C          -0.3287    9.6345   -0.3439 C.3     1  LIG1        0.0789
     41 H          -0.0115   10.5893    0.0691 H       1  LIG1        0.0660
     42 H           0.5364    9.0783   -0.7121 H       1  LIG1        0.0660
     43 H          -1.0457    9.7911   -1.1527 H       1  LIG1        0.0660
     44 C          -3.3522    8.3306   -0.9838 C.ar    1  LIG1        0.0359
     45 C          -3.9288    9.4070   -0.3720 C.ar    1  LIG1        0.0066
     46 C          -4.7795   10.1217   -1.2926 C.ar    1  LIG1        0.1306
     47 C          -4.8274    9.5828   -2.5383 C.ar    1  LIG1        0.0183
     48 S          -3.8293    8.1859   -2.6500 S.2     1  LIG1       -0.0920
     49 H          -5.4142    9.9306   -3.3723 H       1  LIG1        0.0730
     50 C          -3.7854    9.7967    1.0783 C.3     1  LIG1       -0.0351
     51 H          -4.6892   10.3192    1.3925 H       1  LIG1        0.0279
     52 H          -2.9176   10.4431    1.2238 H       1  LIG1        0.0279
     53 H          -3.6382    8.9050    1.6877 H       1  LIG1        0.0279
     54 O          -5.4994   11.2206   -0.9138 O.3     1  LIG1       -0.4943
     55 C          -4.7541   12.4331   -0.9795 C.3     1  LIG1        0.0788
     56 H          -5.4182   13.2224   -0.6358 H       1  LIG1        0.0660
     57 H          -3.8741   12.3781   -0.3345 H       1  LIG1        0.0660
     58 H          -4.4411   12.6246   -2.0079 H       1  LIG1        0.0660
@<TRIPOS>BOND
     1    49    47    1
     2    48    47   ar
     3    48    44   ar
     4    13    12    1
     5    47    46   ar
     6    58    55    1
     7    28    26    1
     8    14    12    1
     9    12    15    1
    10    12    11    1
    11    29    26    1
    12    27    26    1
    13    26    25    1
    14    46    54    1
    15    46    45   ar
    16    43    40    1
    17    44    33    1
    18    44    45   ar
    19    55    54    1
    20    55    56    1
    21    55    57    1
    22    42    40    1
    23     9     7    1
    24    34    33   ar
    25    34    30   ar
    26    11     3    1
    27    23    21    1
    28    33    32   ar
    29    45    50    1
    30    40    41    1
    31    40    39    1
    32    25    18    1
    33     8     7    1
    34    30    19    1
    35    30    31   ar
    36    32    39    1
    37    32    31   ar
    38     7    10    1
    39     7     2    1
    40    18    19   ar
    41    18    17   ar
    42     3     2   ar
    43     3     4   ar
    44    19    20   ar
    45    21    17    1
    46    21    22    1
    47    21    24    1
    48    17    16   ar
    49    31    35    1
    50    16    20   ar
    51    16     4    1
    52     2     1   ar
    53    50    52    1
    54    50    51    1
    55    50    53    1
    56    37    35    1
    57     4     5   ar
    58    35    38    1
    59    35    36    1
    60     1     5   ar
    61     1     6    1
