@<TRIPOS>MOLECULE
mol_data/opt/m06hf/geoms/mol2/5il5il5il-.out
 44 46 0 0 0
SMALL
GASTEIGER

@<TRIPOS>ATOM
      1 C          -1.9325   -2.1321    1.2682 C.ar    1  LIG1       -0.0172
      2 C          -0.7227   -2.2289    0.6600 C.ar    1  LIG1       -0.0011
      3 C          -0.1969   -0.9243    0.3535 C.ar    1  LIG1        0.1382
      4 C          -1.0068    0.1073    0.7376 C.ar    1  LIG1        0.0681
      5 S          -2.4465   -0.4993    1.4851 S.2     1  LIG1       -0.0921
      6 H          -2.5606   -2.9410    1.6068 H       1  LIG1        0.0697
      7 C           0.0246   -3.4933    0.3127 C.3     1  LIG1       -0.0357
      8 H           0.9873   -3.5082    0.8241 H       1  LIG1        0.0279
      9 H           0.2134   -3.5325   -0.7614 H       1  LIG1        0.0279
     10 H          -0.5526   -4.3688    0.6061 H       1  LIG1        0.0279
     11 O           1.0058   -0.7911   -0.2786 O.3     1  LIG1       -0.4937
     12 C           0.9237   -0.2602   -1.6026 C.3     1  LIG1        0.0789
     13 H           1.9287   -0.3217   -2.0135 H       1  LIG1        0.0660
     14 H           0.2341   -0.8585   -2.2016 H       1  LIG1        0.0660
     15 H           0.5891    0.7788   -1.5774 H       1  LIG1        0.0660
     16 C          -0.7365    1.5358    0.5642 C.ar    1  LIG1        0.0365
     17 C           0.4345    2.1851    0.8341 C.ar    1  LIG1        0.0072
     18 C           0.3515    3.5684    0.4508 C.ar    1  LIG1        0.1388
     19 C          -0.8542    3.9394   -0.0761 C.ar    1  LIG1        0.0687
     20 S          -1.9310    2.5842   -0.1337 S.2     1  LIG1       -0.0831
     21 C           1.6785    1.5861    1.4408 C.3     1  LIG1       -0.0351
     22 H           2.1682    2.3363    2.0605 H       1  LIG1        0.0279
     23 H           2.3677    1.2648    0.6570 H       1  LIG1        0.0279
     24 H           1.4182    0.7130    2.0375 H       1  LIG1        0.0279
     25 O           1.4156    4.4099    0.6059 O.3     1  LIG1       -0.4937
     26 C           2.0833    4.7126   -0.6199 C.3     1  LIG1        0.0789
     27 H           2.9447    5.3212   -0.3554 H       1  LIG1        0.0660
     28 H           2.4104    3.7889   -1.1030 H       1  LIG1        0.0660
     29 H           1.4165    5.2669   -1.2840 H       1  LIG1        0.0660
     30 C          -1.2219    5.2733   -0.5526 C.ar    1  LIG1        0.0359
     31 C          -0.9672    6.4680    0.0570 C.ar    1  LIG1        0.0066
     32 C          -1.4427    7.5654   -0.7510 C.ar    1  LIG1        0.1306
     33 C          -2.0348    7.1854   -1.9128 C.ar    1  LIG1        0.0183
     34 S          -2.0288    5.4730   -2.0817 S.2     1  LIG1       -0.0920
     35 H          -2.4844    7.8286   -2.6509 H       1  LIG1        0.0730
     36 C          -0.3470    6.6694    1.4178 C.3     1  LIG1       -0.0351
     37 H          -0.7480    7.5858    1.8519 H       1  LIG1        0.0279
     38 H           0.7396    6.7433    1.3447 H       1  LIG1        0.0279
     39 H          -0.5782    5.8190    2.0589 H       1  LIG1        0.0279
     40 O          -1.3265    8.8670   -0.3487 O.3     1  LIG1       -0.4943
     41 C          -0.0488    9.4286   -0.6342 C.3     1  LIG1        0.0788
     42 H          -0.0628   10.4434   -0.2444 H       1  LIG1        0.0660
     43 H           0.7407    8.8523   -0.1460 H       1  LIG1        0.0660
     44 H           0.1222    9.4412   -1.7128 H       1  LIG1        0.0660
@<TRIPOS>BOND
     1    35    33    1
     2    14    12    1
     3    34    33   ar
     4    34    30   ar
     5    13    12    1
     6    33    32   ar
     7    44    41    1
     8    12    15    1
     9    12    11    1
    10    29    26    1
    11    28    26    1
    12     9     7    1
    13    32    40    1
    14    32    31   ar
    15    41    40    1
    16    41    42    1
    17    41    43    1
    18    26    27    1
    19    26    25    1
    20    30    19    1
    21    30    31   ar
    22    11     3    1
    23    20    19   ar
    24    20    16   ar
    25    19    18   ar
    26    31    36    1
    27     7    10    1
    28     7     2    1
    29     7     8    1
    30     3     2   ar
    31     3     4   ar
    32    18    25    1
    33    18    17   ar
    34    16     4    1
    35    16    17   ar
    36    23    21    1
    37     2     1   ar
    38     4     5   ar
    39    17    21    1
    40     1     5   ar
    41     1     6    1
    42    38    36    1
    43    36    37    1
    44    36    39    1
    45    21    24    1
    46    21    22    1
