@<TRIPOS>MOLECULE
mol_data/opt/m06hf/geoms/mol2/5il5il.out
 30 31 0 0 0
SMALL
GASTEIGER

@<TRIPOS>ATOM
      1 C          -2.3676   -1.8493    0.5693 C.ar    1  LIG1       -0.0172
      2 C          -1.0447   -2.1492    0.5074 C.ar    1  LIG1       -0.0011
      3 C          -0.2666   -0.9786    0.1959 C.ar    1  LIG1        0.1382
      4 C          -1.0077    0.1586    0.0390 C.ar    1  LIG1        0.0681
      5 S          -2.6933   -0.1836    0.2605 S.2     1  LIG1       -0.0921
      6 H          -3.1814   -2.5259    0.7768 H       1  LIG1        0.0697
      7 C          -0.4080   -3.5014    0.7174 C.3     1  LIG1       -0.0357
      8 H           0.3075   -3.4512    1.5385 H       1  LIG1        0.0279
      9 H           0.1315   -3.8053   -0.1810 H       1  LIG1        0.0279
     10 H          -1.1682   -4.2468    0.9459 H       1  LIG1        0.0279
     11 O           1.0905   -1.0575    0.0771 O.3     1  LIG1       -0.4937
     12 C           1.5789   -0.8342   -1.2473 C.3     1  LIG1        0.0789
     13 H           2.6511   -1.0096   -1.2064 H       1  LIG1        0.0660
     14 H           1.1085   -1.5354   -1.9395 H       1  LIG1        0.0660
     15 H           1.3775    0.1920   -1.5601 H       1  LIG1        0.0660
     16 C          -0.5007    1.5025   -0.2489 C.ar    1  LIG1        0.0359
     17 C           0.5527    2.1228    0.3532 C.ar    1  LIG1        0.0066
     18 C           0.7859    3.4236   -0.2304 C.ar    1  LIG1        0.1306
     19 C          -0.0825    3.7486   -1.2266 C.ar    1  LIG1        0.0183
     20 S          -1.2101    2.4678   -1.5067 S.2     1  LIG1       -0.0920
     21 H          -0.1362    4.6543   -1.8058 H       1  LIG1        0.0730
     22 C           1.3814    1.5877    1.4934 C.3     1  LIG1       -0.0351
     23 H           1.6360    2.4074    2.1646 H       1  LIG1        0.0279
     24 H           2.3040    1.1410    1.1179 H       1  LIG1        0.0279
     25 H           0.8222    0.8210    2.0277 H       1  LIG1        0.0279
     26 O           1.7983    4.1746    0.2642 O.3     1  LIG1       -0.4943
     27 C           1.9361    5.4674   -0.2918 C.3     1  LIG1        0.0788
     28 H           2.7696    5.9356    0.2243 H       1  LIG1        0.0660
     29 H           2.1506    5.4006   -1.3620 H       1  LIG1        0.0660
     30 H           1.0230    6.0474   -0.1327 H       1  LIG1        0.0660
@<TRIPOS>BOND
     1    14    12    1
     2    21    19    1
     3    15    12    1
     4    20    19   ar
     5    20    16   ar
     6    29    27    1
     7    12    13    1
     8    12    11    1
     9    19    18   ar
    10    27    30    1
    11    27    28    1
    12    27    26    1
    13    16     4    1
    14    16    17   ar
    15    18    26    1
    16    18    17   ar
    17     9     7    1
    18     4     3   ar
    19     4     5   ar
    20    11     3    1
    21     3     2   ar
    22     5     1   ar
    23    17    22    1
    24     2     1   ar
    25     2     7    1
    26     1     6    1
    27     7    10    1
    28     7     8    1
    29    24    22    1
    30    22    25    1
    31    22    23    1
