@<TRIPOS>MOLECULE
mol_data/opt/m06hf/geoms/mol2/5il5il5il.out
 44 46 0 0 0
SMALL
GASTEIGER

@<TRIPOS>ATOM
      1 C          -1.9128   -2.1318    1.2922 C.ar    1  LIG1       -0.0172
      2 C          -0.7075   -2.2281    0.6750 C.ar    1  LIG1       -0.0011
      3 C          -0.1866   -0.9236    0.3603 C.ar    1  LIG1        0.1382
      4 C          -0.9954    0.1077    0.7473 C.ar    1  LIG1        0.0681
      5 S          -2.4282   -0.4993    1.5078 S.2     1  LIG1       -0.0921
      6 H          -2.5366   -2.9407    1.6382 H       1  LIG1        0.0697
      7 C           0.0396   -3.4922    0.3260 C.3     1  LIG1       -0.0357
      8 H           1.0061   -3.5038    0.8301 H       1  LIG1        0.0279
      9 H           0.2202   -3.5346   -0.7493 H       1  LIG1        0.0279
     10 H          -0.5337   -4.3679    0.6265 H       1  LIG1        0.0279
     11 O           1.0110   -0.7901   -0.2814 O.3     1  LIG1       -0.4937
     12 C           0.9176   -0.2636   -1.6065 C.3     1  LIG1        0.0789
     13 H           1.9196   -0.3245   -2.0249 H       1  LIG1        0.0660
     14 H           0.2246   -0.8651   -2.1983 H       1  LIG1        0.0660
     15 H           0.5812    0.7749   -1.5820 H       1  LIG1        0.0660
     16 C          -0.7293    1.5361    0.5673 C.ar    1  LIG1        0.0365
     17 C           0.4426    2.1886    0.8261 C.ar    1  LIG1        0.0072
     18 C           0.3539    3.5705    0.4390 C.ar    1  LIG1        0.1388
     19 C          -0.8566    3.9374   -0.0798 C.ar    1  LIG1        0.0687
     20 S          -1.9311    2.5801   -0.1247 S.2     1  LIG1       -0.0831
     21 C           1.6923    1.5939    1.4250 C.3     1  LIG1       -0.0351
     22 H           2.1853    2.3470    2.0386 H       1  LIG1        0.0279
     23 H           2.3762    1.2715    0.6370 H       1  LIG1        0.0279
     24 H           1.4384    0.7222    2.0264 H       1  LIG1        0.0279
     25 O           1.4175    4.4145    0.5832 O.3     1  LIG1       -0.4937
     26 C           2.0751    4.7145   -0.6487 C.3     1  LIG1        0.0789
     27 H           2.9374    5.3257   -0.3928 H       1  LIG1        0.0660
     28 H           2.4003    3.7900   -1.1314 H       1  LIG1        0.0660
     29 H           1.4021    5.2655   -1.3094 H       1  LIG1        0.0660
     30 C          -1.2305    5.2691   -0.5577 C.ar    1  LIG1        0.0359
     31 C          -0.9734    6.4662    0.0461 C.ar    1  LIG1        0.0066
     32 C          -1.4572    7.5601   -0.7617 C.ar    1  LIG1        0.1306
     33 C          -2.0575    7.1753   -1.9177 C.ar    1  LIG1        0.0183
     34 S          -2.0496    5.4623   -2.0812 S.2     1  LIG1       -0.0920
     35 H          -2.5141    7.8152   -2.6544 H       1  LIG1        0.0730
     36 C          -0.3432    6.6732    1.4014 C.3     1  LIG1       -0.0351
     37 H          -0.7426    7.5902    1.8356 H       1  LIG1        0.0279
     38 H           0.7428    6.7489    1.3197 H       1  LIG1        0.0279
     39 H          -0.5678    5.8244    2.0470 H       1  LIG1        0.0279
     40 O          -1.3404    8.8632   -0.3645 O.3     1  LIG1       -0.4943
     41 C          -0.0660    9.4264   -0.6617 C.3     1  LIG1        0.0788
     42 H          -0.0790   10.4424   -0.2751 H       1  LIG1        0.0660
     43 H           0.7284    8.8532   -0.1778 H       1  LIG1        0.0660
     44 H           0.0966    9.4358   -1.7416 H       1  LIG1        0.0660
@<TRIPOS>BOND
     1    35    33    1
     2    14    12    1
     3    34    33   ar
     4    34    30   ar
     5    13    12    1
     6    33    32   ar
     7    44    41    1
     8    12    15    1
     9    12    11    1
    10    29    26    1
    11    28    26    1
    12    32    40    1
    13    32    31   ar
    14     9     7    1
    15    41    40    1
    16    41    42    1
    17    41    43    1
    18    26    27    1
    19    26    25    1
    20    30    19    1
    21    30    31   ar
    22    11     3    1
    23    20    19   ar
    24    20    16   ar
    25    19    18   ar
    26    31    36    1
    27     7    10    1
    28     7     2    1
    29     7     8    1
    30     3     2   ar
    31     3     4   ar
    32    18    25    1
    33    18    17   ar
    34    16     4    1
    35    16    17   ar
    36    23    21    1
    37     2     1   ar
    38     4     5   ar
    39    17    21    1
    40     1     5   ar
    41     1     6    1
    42    38    36    1
    43    36    37    1
    44    36    39    1
    45    21    24    1
    46    21    22    1
