@<TRIPOS>MOLECULE
mol_data/opt/m06hf/geoms/mol2/5il5il5il5il-.out
 58 61 0 0 0
SMALL
GASTEIGER

@<TRIPOS>ATOM
      1 C          -1.2471   -2.0740    2.2038 C.ar    1  LIG1       -0.0172
      2 C          -0.4912   -2.2080    1.0843 C.ar    1  LIG1       -0.0011
      3 C          -0.1202   -0.9201    0.5583 C.ar    1  LIG1        0.1382
      4 C          -0.5929    0.1361    1.2853 C.ar    1  LIG1        0.0681
      5 S          -1.5151   -0.4267    2.6405 S.2     1  LIG1       -0.0921
      6 H          -1.6696   -2.8633    2.8054 H       1  LIG1        0.0697
      7 C          -0.0681   -3.4966    0.4222 C.3     1  LIG1       -0.0357
      8 H           1.0198   -3.5568    0.3869 H       1  LIG1        0.0279
      9 H          -0.4409   -3.5321   -0.6025 H       1  LIG1        0.0279
     10 H          -0.4589   -4.3510    0.9726 H       1  LIG1        0.0279
     11 O           0.6295   -0.8204   -0.5784 O.3     1  LIG1       -0.4937
     12 C          -0.0790   -0.2957   -1.7031 C.3     1  LIG1        0.0789
     13 H           0.5972   -0.3778   -2.5506 H       1  LIG1        0.0660
     14 H          -0.9808   -0.8844   -1.8830 H       1  LIG1        0.0660
     15 H          -0.3438    0.7497   -1.5314 H       1  LIG1        0.0660
     16 C          -0.3787    1.5572    1.0075 C.ar    1  LIG1        0.0365
     17 C           0.8007    2.1612    0.6727 C.ar    1  LIG1        0.0072
     18 C           0.6020    3.5621    0.4168 C.ar    1  LIG1        0.1388
     19 C          -0.6875    3.9887    0.5694 C.ar    1  LIG1        0.0687
     20 S          -1.7136    2.6684    1.0204 S.2     1  LIG1       -0.0831
     21 C           2.1540    1.5034    0.5769 C.3     1  LIG1       -0.0351
     22 H           2.9189    2.2229    0.8663 H       1  LIG1        0.0279
     23 H           2.3451    1.1694   -0.4451 H       1  LIG1        0.0279
     24 H           2.1899    0.6300    1.2270 H       1  LIG1        0.0279
     25 O           1.6397    4.3719    0.0555 O.3     1  LIG1       -0.4937
     26 C           1.6276    4.7393   -1.3244 C.3     1  LIG1        0.0789
     27 H           2.5154    5.3466   -1.4848 H       1  LIG1        0.0660
     28 H           1.6677    3.8433   -1.9481 H       1  LIG1        0.0660
     29 H           0.7291    5.3159   -1.5539 H       1  LIG1        0.0660
     30 C          -1.1768    5.3551    0.3782 C.ar    1  LIG1        0.0365
     31 C          -0.6053    6.5067    0.8411 C.ar    1  LIG1        0.0072
     32 C          -1.3349    7.6582    0.3823 C.ar    1  LIG1        0.1388
     33 C          -2.4217    7.3685   -0.3938 C.ar    1  LIG1        0.0687
     34 S          -2.5814    5.6577   -0.5983 S.2     1  LIG1       -0.0831
     35 C           0.6151    6.6209    1.7196 C.3     1  LIG1       -0.0351
     36 H           0.5096    7.4949    2.3613 H       1  LIG1        0.0279
     37 H           1.5137    6.7283    1.1087 H       1  LIG1        0.0279
     38 H           0.7259    5.7202    2.3221 H       1  LIG1        0.0279
     39 O          -0.9417    8.9226    0.7147 O.3     1  LIG1       -0.4937
     40 C          -0.3301    9.6335   -0.3626 C.3     1  LIG1        0.0789
     41 H          -0.0108   10.5894    0.0463 H       1  LIG1        0.0660
     42 H           0.5330    9.0762   -0.7336 H       1  LIG1        0.0660
     43 H          -1.0513    9.7880   -1.1680 H       1  LIG1        0.0660
     44 C          -3.3570    8.3282   -0.9833 C.ar    1  LIG1        0.0359
     45 C          -3.9304    9.4062   -0.3714 C.ar    1  LIG1        0.0066
     46 C          -4.7858   10.1184   -1.2894 C.ar    1  LIG1        0.1306
     47 C          -4.8402    9.5763   -2.5335 C.ar    1  LIG1        0.0183
     48 S          -3.8427    8.1790   -2.6466 S.2     1  LIG1       -0.0920
     49 H          -5.4313    9.9218   -3.3653 H       1  LIG1        0.0730
     50 C          -3.7794    9.7998    1.0771 C.3     1  LIG1       -0.0351
     51 H          -4.6816   10.3231    1.3946 H       1  LIG1        0.0279
     52 H          -2.9108   10.4465    1.2164 H       1  LIG1        0.0279
     53 H          -3.6291    8.9097    1.6881 H       1  LIG1        0.0279
     54 O          -5.5036   11.2184   -0.9099 O.3     1  LIG1       -0.4943
     55 C          -4.7586   12.4307   -0.9827 C.3     1  LIG1        0.0788
     56 H          -5.4210   13.2209   -0.6376 H       1  LIG1        0.0660
     57 H          -3.8753   12.3773   -0.3421 H       1  LIG1        0.0660
     58 H          -4.4510   12.6194   -2.0131 H       1  LIG1        0.0660
@<TRIPOS>BOND
     1    49    47    1
     2    48    47   ar
     3    48    44   ar
     4    13    12    1
     5    47    46   ar
     6    58    55    1
     7    28    26    1
     8    14    12    1
     9    12    15    1
    10    12    11    1
    11    29    26    1
    12    27    26    1
    13    26    25    1
    14    46    54    1
    15    46    45   ar
    16    43    40    1
    17    44    33    1
    18    44    45   ar
    19    55    54    1
    20    55    56    1
    21    55    57    1
    22    42    40    1
    23     9     7    1
    24    34    33   ar
    25    34    30   ar
    26    11     3    1
    27    23    21    1
    28    33    32   ar
    29    45    50    1
    30    40    41    1
    31    40    39    1
    32    25    18    1
    33    30    19    1
    34    30    31   ar
    35    32    39    1
    36    32    31   ar
    37     8     7    1
    38    18    19   ar
    39    18    17   ar
    40     7    10    1
    41     7     2    1
    42     3     2   ar
    43     3     4   ar
    44    19    20   ar
    45    21    17    1
    46    21    22    1
    47    21    24    1
    48    17    16   ar
    49    31    35    1
    50    16    20   ar
    51    16     4    1
    52    50    52    1
    53    50    51    1
    54    50    53    1
    55     2     1   ar
    56    37    35    1
    57     4     5   ar
    58    35    38    1
    59    35    36    1
    60     1     5   ar
    61     1     6    1
