@<TRIPOS>MOLECULE
mol_data/opt/m06hf/geoms/mol2/5il5il-5il-.out
 44 46 0 0 0
SMALL
GASTEIGER

@<TRIPOS>ATOM
      1 C          -1.8968   -2.1385    1.3007 C.ar    1  LIG1       -0.0172
      2 C          -0.7021   -2.2319    0.6628 C.ar    1  LIG1       -0.0011
      3 C          -0.1850   -0.9258    0.3484 C.ar    1  LIG1        0.1382
      4 C          -0.9861    0.1037    0.7560 C.ar    1  LIG1        0.0681
      5 S          -2.4066   -0.5070    1.5362 S.2     1  LIG1       -0.0921
      6 H          -2.5158   -2.9492    1.6515 H       1  LIG1        0.0697
      7 C           0.0375   -3.4944    0.2926 C.3     1  LIG1       -0.0357
      8 H           1.0124   -3.5104    0.7803 H       1  LIG1        0.0279
      9 H           0.1999   -3.5295   -0.7859 H       1  LIG1        0.0279
     10 H          -0.5317   -4.3715    0.5967 H       1  LIG1        0.0279
     11 O           1.0019   -0.7892   -0.3123 O.3     1  LIG1       -0.4937
     12 C           0.8869   -0.2535   -1.6320 C.3     1  LIG1        0.0789
     13 H           1.8818   -0.3121   -2.0673 H       1  LIG1        0.0660
     14 H           0.1838   -0.8507   -2.2163 H       1  LIG1        0.0660
     15 H           0.5516    0.7849   -1.5948 H       1  LIG1        0.0660
     16 C          -0.7213    1.5330    0.5812 C.ar    1  LIG1        0.0365
     17 C           0.4554    2.1825    0.8250 C.ar    1  LIG1        0.0072
     18 C           0.3618    3.5671    0.4488 C.ar    1  LIG1        0.1388
     19 C          -0.8568    3.9388   -0.0472 C.ar    1  LIG1        0.0687
     20 S          -1.9334    2.5828   -0.0835 S.2     1  LIG1       -0.0831
     21 C           1.7142    1.5826    1.3991 C.3     1  LIG1       -0.0351
     22 H           2.2178    2.3308    2.0100 H       1  LIG1        0.0279
     23 H           2.3848    1.2654    0.5977 H       1  LIG1        0.0279
     24 H           1.4693    0.7067    1.9982 H       1  LIG1        0.0279
     25 O           1.4286    4.4091    0.5810 O.3     1  LIG1       -0.4937
     26 C           2.0659    4.7169   -0.6597 C.3     1  LIG1        0.0789
     27 H           2.9330    5.3253   -0.4140 H       1  LIG1        0.0660
     28 H           2.3818    3.7953   -1.1541 H       1  LIG1        0.0660
     29 H           1.3825    5.2731   -1.3052 H       1  LIG1        0.0660
     30 C          -1.2371    5.2741   -0.5099 C.ar    1  LIG1        0.0359
     31 C          -0.9686    6.4668    0.0976 C.ar    1  LIG1        0.0066
     32 C          -1.4645    7.5667   -0.6947 C.ar    1  LIG1        0.1306
     33 C          -2.0845    7.1902   -1.8431 C.ar    1  LIG1        0.0183
     34 S          -2.0812    5.4784   -2.0182 S.2     1  LIG1       -0.0920
     35 H          -2.5524    7.8355   -2.5678 H       1  LIG1        0.0730
     36 C          -0.3157    6.6641    1.4436 C.3     1  LIG1       -0.0351
     37 H          -0.7069    7.5784    1.8906 H       1  LIG1        0.0279
     38 H           0.7688    6.7393    1.3444 H       1  LIG1        0.0279
     39 H          -0.5305    5.8111    2.0870 H       1  LIG1        0.0279
     40 O          -1.3397    8.8669   -0.2908 O.3     1  LIG1       -0.4943
     41 C          -0.0697    9.4307   -0.6054 C.3     1  LIG1        0.0788
     42 H          -0.0750   10.4441   -0.2117 H       1  LIG1        0.0660
     43 H           0.7319    8.8534   -0.1387 H       1  LIG1        0.0660
     44 H           0.0748    9.4474   -1.6878 H       1  LIG1        0.0660
@<TRIPOS>BOND
     1    35    33    1
     2    14    12    1
     3    13    12    1
     4    34    33   ar
     5    34    30   ar
     6    33    32   ar
     7    44    41    1
     8    12    15    1
     9    12    11    1
    10    29    26    1
    11    28    26    1
    12     9     7    1
    13    32    40    1
    14    32    31   ar
    15    26    27    1
    16    26    25    1
    17    41    40    1
    18    41    42    1
    19    41    43    1
    20    30    19    1
    21    30    31   ar
    22    11     3    1
    23    20    19   ar
    24    20    16   ar
    25    19    18   ar
    26    31    36    1
    27     7    10    1
    28     7     2    1
    29     7     8    1
    30     3     2   ar
    31     3     4   ar
    32    18    25    1
    33    18    17   ar
    34    16     4    1
    35    16    17   ar
    36    23    21    1
    37     2     1   ar
    38     4     5   ar
    39    17    21    1
    40     1     5   ar
    41     1     6    1
    42    38    36    1
    43    21    24    1
    44    21    22    1
    45    36    37    1
    46    36    39    1
