@<TRIPOS>MOLECULE
mol_data/opt/m06hf/geoms/mol2/5il5il-5il5il.out
 58 61 0 0 0
SMALL
GASTEIGER

@<TRIPOS>ATOM
      1 C          -1.2162   -2.0846    2.1972 C.ar    1  LIG1       -0.0172
      2 C          -0.4738   -2.2127    1.0680 C.ar    1  LIG1       -0.0011
      3 C          -0.1099   -0.9221    0.5436 C.ar    1  LIG1        0.1382
      4 C          -0.5745    0.1303    1.2812 C.ar    1  LIG1        0.0681
      5 S          -1.4800   -0.4395    2.6448 S.2     1  LIG1       -0.0921
      6 H          -1.6309   -2.8770    2.8001 H       1  LIG1        0.0697
      7 C          -0.0579   -3.4979    0.3947 C.3     1  LIG1       -0.0357
      8 H           1.0296   -3.5572    0.3460 H       1  LIG1        0.0279
      9 H          -0.4429   -3.5288   -0.6256 H       1  LIG1        0.0279
     10 H          -0.4415   -4.3552    0.9457 H       1  LIG1        0.0279
     11 O           0.6260   -0.8166   -0.6015 O.3     1  LIG1       -0.4937
     12 C          -0.0963   -0.2870   -1.7151 C.3     1  LIG1        0.0789
     13 H           0.5697   -0.3647   -2.5710 H       1  LIG1        0.0660
     14 H          -0.9998   -0.8755   -1.8869 H       1  LIG1        0.0660
     15 H          -0.3597    0.7573   -1.5352 H       1  LIG1        0.0660
     16 C          -0.3645    1.5528    1.0077 C.ar    1  LIG1        0.0365
     17 C           0.8104    2.1592    0.6615 C.ar    1  LIG1        0.0072
     18 C           0.6078    3.5612    0.4147 C.ar    1  LIG1        0.1388
     19 C          -0.6801    3.9861    0.5848 C.ar    1  LIG1        0.0687
     20 S          -1.6999    2.6631    1.0419 S.2     1  LIG1       -0.0831
     21 C           2.1628    1.5028    0.5463 C.3     1  LIG1       -0.0351
     22 H           2.9307    2.2215    0.8299 H       1  LIG1        0.0279
     23 H           2.3418    1.1738   -0.4794 H       1  LIG1        0.0279
     24 H           2.2071    0.6264    1.1918 H       1  LIG1        0.0279
     25 O           1.6405    4.3734    0.0448 O.3     1  LIG1       -0.4937
     26 C           1.6115    4.7474   -1.3331 C.3     1  LIG1        0.0789
     27 H           2.4969    5.3560   -1.5013 H       1  LIG1        0.0660
     28 H           1.6447    3.8543   -1.9614 H       1  LIG1        0.0660
     29 H           0.7100    5.3244   -1.5490 H       1  LIG1        0.0660
     30 C          -1.1725    5.3532    0.4060 C.ar    1  LIG1        0.0365
     31 C          -0.5962    6.5029    0.8676 C.ar    1  LIG1        0.0072
     32 C          -1.3321    7.6560    0.4231 C.ar    1  LIG1        0.1388
     33 C          -2.4279    7.3693   -0.3413 C.ar    1  LIG1        0.0687
     34 S          -2.5890    5.6594   -0.5520 S.2     1  LIG1       -0.0831
     35 C           0.6345    6.6138    1.7318 C.3     1  LIG1       -0.0351
     36 H           0.5363    7.4847    2.3789 H       1  LIG1        0.0279
     37 H           1.5257    6.7246    1.1107 H       1  LIG1        0.0279
     38 H           0.7532    5.7103    2.3287 H       1  LIG1        0.0279
     39 O          -0.9357    8.9192    0.7567 O.3     1  LIG1       -0.4937
     40 C          -0.3375    9.6355   -0.3244 C.3     1  LIG1        0.0789
     41 H          -0.0139   10.5897    0.0851 H       1  LIG1        0.0660
     42 H           0.5214    9.0807   -0.7085 H       1  LIG1        0.0660
     43 H          -1.0684    9.7934   -1.1205 H       1  LIG1        0.0660
     44 C          -3.3709    8.3311   -0.9149 C.ar    1  LIG1        0.0359
     45 C          -3.9375    9.4058   -0.2911 C.ar    1  LIG1        0.0066
     46 C          -4.8043   10.1219   -1.1954 C.ar    1  LIG1        0.1306
     47 C          -4.8733    9.5856   -2.4412 C.ar    1  LIG1        0.0183
     48 S          -3.8765    8.1895   -2.5730 S.2     1  LIG1       -0.0920
     49 H          -5.4746    9.9346   -3.2642 H       1  LIG1        0.0730
     50 C          -3.7694    9.7927    1.1573 C.3     1  LIG1       -0.0351
     51 H          -4.6680   10.3139    1.4881 H       1  LIG1        0.0279
     52 H          -2.8996   10.4393    1.2893 H       1  LIG1        0.0279
     53 H          -3.6112    8.8998    1.7623 H       1  LIG1        0.0279
     54 O          -5.5183   11.2196   -0.8019 O.3     1  LIG1       -0.4943
     55 C          -4.7749   12.4327   -0.8780 C.3     1  LIG1        0.0788
     56 H          -5.4336   13.2208   -0.5212 H       1  LIG1        0.0660
     57 H          -3.8839   12.3769   -0.2483 H       1  LIG1        0.0660
     58 H          -4.4799   12.6265   -1.9112 H       1  LIG1        0.0660
@<TRIPOS>BOND
     1    49    47    1
     2    48    47   ar
     3    48    44   ar
     4    13    12    1
     5    47    46   ar
     6    28    26    1
     7    58    55    1
     8    14    12    1
     9    12    15    1
    10    12    11    1
    11    29    26    1
    12    27    26    1
    13    26    25    1
    14    46    54    1
    15    46    45   ar
    16    43    40    1
    17    44    33    1
    18    44    45   ar
    19    55    54    1
    20    55    56    1
    21    55    57    1
    22    42    40    1
    23     9     7    1
    24    11     3    1
    25    34    33   ar
    26    34    30   ar
    27    23    21    1
    28    33    32   ar
    29    40    41    1
    30    40    39    1
    31    45    50    1
    32    25    18    1
    33     8     7    1
    34     7    10    1
    35     7     2    1
    36    30    19    1
    37    30    31   ar
    38    18    19   ar
    39    18    17   ar
    40    32    39    1
    41    32    31   ar
    42     3     2   ar
    43     3     4   ar
    44    21    17    1
    45    21    22    1
    46    21    24    1
    47    19    20   ar
    48    17    16   ar
    49    31    35    1
    50    16    20   ar
    51    16     4    1
    52     2     1   ar
    53    37    35    1
    54    50    52    1
    55    50    51    1
    56    50    53    1
    57     4     5   ar
    58    35    38    1
    59    35    36    1
    60     1     5   ar
    61     1     6    1
