@<TRIPOS>MOLECULE
mol_data/opt/m06hf/geoms/mol2/5il5il-5il-5il.out
 58 61 0 0 0
SMALL
GASTEIGER

@<TRIPOS>ATOM
      1 C          -1.2417   -2.0888    2.1780 C.ar    1  LIG1       -0.0172
      2 C          -0.4873   -2.2150    1.0566 C.ar    1  LIG1       -0.0011
      3 C          -0.1175   -0.9234    0.5388 C.ar    1  LIG1        0.1382
      4 C          -0.5896    0.1277    1.2735 C.ar    1  LIG1        0.0681
      5 S          -1.5098   -0.4446    2.6262 S.2     1  LIG1       -0.0921
      6 H          -1.6631   -2.8823    2.7749 H       1  LIG1        0.0697
      7 C          -0.0646   -3.4989    0.3852 C.3     1  LIG1       -0.0357
      8 H           1.0233   -3.5585    0.3481 H       1  LIG1        0.0279
      9 H          -0.4387   -3.5277   -0.6392 H       1  LIG1        0.0279
     10 H          -0.4544   -4.3572    0.9304 H       1  LIG1        0.0279
     11 O           0.6306   -0.8158   -0.5982 O.3     1  LIG1       -0.4937
     12 C          -0.0795   -0.2838   -1.7183 C.3     1  LIG1        0.0789
     13 H           0.5956   -0.3600   -2.5673 H       1  LIG1        0.0660
     14 H          -0.9813   -0.8717   -1.9010 H       1  LIG1        0.0660
     15 H          -0.3445    0.7603   -1.5393 H       1  LIG1        0.0660
     16 C          -0.3762    1.5507    1.0051 C.ar    1  LIG1        0.0365
     17 C           0.8025    2.1573    0.6727 C.ar    1  LIG1        0.0072
     18 C           0.6029    3.5598    0.4265 C.ar    1  LIG1        0.1388
     19 C          -0.6865    3.9849    0.5837 C.ar    1  LIG1        0.0687
     20 S          -1.7116    2.6613    1.0272 S.2     1  LIG1       -0.0831
     21 C           2.1558    1.5007    0.5707 C.3     1  LIG1       -0.0351
     22 H           2.9209    2.2186    0.8639 H       1  LIG1        0.0279
     23 H           2.3457    1.1737   -0.4538 H       1  LIG1        0.0279
     24 H           2.1930    0.6230    1.2148 H       1  LIG1        0.0279
     25 O           1.6398    4.3725    0.0693 O.3     1  LIG1       -0.4937
     26 C           1.6257    4.7492   -1.3081 C.3     1  LIG1        0.0789
     27 H           2.5131    5.3579   -1.4656 H       1  LIG1        0.0660
     28 H           1.6653    3.8574   -1.9378 H       1  LIG1        0.0660
     29 H           0.7267    5.3270   -1.5325 H       1  LIG1        0.0660
     30 C          -1.1766    5.3524    0.4024 C.ar    1  LIG1        0.0365
     31 C          -0.6049    6.5011    0.8723 C.ar    1  LIG1        0.0072
     32 C          -1.3356    7.6553    0.4222 C.ar    1  LIG1        0.1388
     33 C          -2.4233    7.3705   -0.3544 C.ar    1  LIG1        0.0687
     34 S          -2.5827    5.6610   -0.5702 S.2     1  LIG1       -0.0831
     35 C           0.6165    6.6099    1.7499 C.3     1  LIG1       -0.0351
     36 H           0.5116    7.4795    2.3976 H       1  LIG1        0.0279
     37 H           1.5144    6.7217    1.1385 H       1  LIG1        0.0279
     38 H           0.7286    5.7051    2.3462 H       1  LIG1        0.0279
     39 O          -0.9424    8.9177    0.7626 O.3     1  LIG1       -0.4937
     40 C          -0.3325    9.6360   -0.3107 C.3     1  LIG1        0.0789
     41 H          -0.0130   10.5893    0.1042 H       1  LIG1        0.0660
     42 H           0.5303    9.0816   -0.6866 H       1  LIG1        0.0660
     43 H          -1.0549    9.7956   -1.1142 H       1  LIG1        0.0660
     44 C          -3.3598    8.3337   -0.9362 C.ar    1  LIG1        0.0359
     45 C          -3.9327    9.4074   -0.3163 C.ar    1  LIG1        0.0066
     46 C          -4.7896   10.1255   -1.2283 C.ar    1  LIG1        0.1306
     47 C          -4.8454    9.5917   -2.4759 C.ar    1  LIG1        0.0183
     48 S          -3.8477    8.1956   -2.5998 S.2     1  LIG1       -0.0920
     49 H          -5.4378    9.9426   -3.3046 H       1  LIG1        0.0730
     50 C          -3.7800    9.7913    1.1347 C.3     1  LIG1       -0.0351
     51 H          -4.6819   10.3122    1.4569 H       1  LIG1        0.0279
     52 H          -2.9115   10.4374    1.2772 H       1  LIG1        0.0279
     53 H          -3.6285    8.8972    1.7395 H       1  LIG1        0.0279
     54 O          -5.5074   11.2226   -0.8404 O.3     1  LIG1       -0.4943
     55 C          -4.7629   12.4356   -0.9060 C.3     1  LIG1        0.0788
     56 H          -5.4251   13.2233   -0.5548 H       1  LIG1        0.0660
     57 H          -3.8787   12.3783   -0.2670 H       1  LIG1        0.0660
     58 H          -4.4567   12.6314   -1.9356 H       1  LIG1        0.0660
@<TRIPOS>BOND
     1    49    47    1
     2    48    47   ar
     3    48    44   ar
     4    13    12    1
     5    47    46   ar
     6    28    26    1
     7    58    55    1
     8    14    12    1
     9    12    15    1
    10    12    11    1
    11    29    26    1
    12    27    26    1
    13    26    25    1
    14    46    54    1
    15    46    45   ar
    16    43    40    1
    17    44    33    1
    18    44    45   ar
    19    55    54    1
    20    55    56    1
    21    55    57    1
    22    42    40    1
    23     9     7    1
    24    11     3    1
    25    34    33   ar
    26    34    30   ar
    27    23    21    1
    28    33    32   ar
    29    45    50    1
    30    40    41    1
    31    40    39    1
    32    25    18    1
    33     8     7    1
    34     7    10    1
    35     7     2    1
    36    30    19    1
    37    30    31   ar
    38    32    39    1
    39    32    31   ar
    40    18    19   ar
    41    18    17   ar
    42     3     2   ar
    43     3     4   ar
    44    21    17    1
    45    21    22    1
    46    21    24    1
    47    19    20   ar
    48    17    16   ar
    49    31    35    1
    50    16    20   ar
    51    16     4    1
    52     2     1   ar
    53    50    52    1
    54    50    51    1
    55    50    53    1
    56    37    35    1
    57     4     5   ar
    58    35    38    1
    59    35    36    1
    60     1     5   ar
    61     1     6    1
