@<TRIPOS>MOLECULE
mol_data/opt/m06hf/geoms/mol2/5il5il-5il.out
 44 46 0 0 0
SMALL
GASTEIGER

@<TRIPOS>ATOM
      1 C          -1.8889   -2.1353    1.3176 C.ar    1  LIG1       -0.0172
      2 C          -0.6952   -2.2300    0.6780 C.ar    1  LIG1       -0.0011
      3 C          -0.1800   -0.9245    0.3574 C.ar    1  LIG1        0.1382
      4 C          -0.9815    0.1057    0.7622 C.ar    1  LIG1        0.0681
      5 S          -2.4001   -0.5033    1.5473 S.2     1  LIG1       -0.0921
      6 H          -2.5063   -2.9452    1.6728 H       1  LIG1        0.0697
      7 C           0.0452   -3.4931    0.3117 C.3     1  LIG1       -0.0357
      8 H           1.0209   -3.5061    0.7977 H       1  LIG1        0.0279
      9 H           0.2058   -3.5325   -0.7670 H       1  LIG1        0.0279
     10 H          -0.5225   -4.3696    0.6203 H       1  LIG1        0.0279
     11 O           1.0055   -0.7893   -0.3058 O.3     1  LIG1       -0.4937
     12 C           0.8877   -0.2592   -1.6275 C.3     1  LIG1        0.0789
     13 H           1.8819   -0.3184   -2.0643 H       1  LIG1        0.0660
     14 H           0.1844   -0.8596   -2.2082 H       1  LIG1        0.0660
     15 H           0.5512    0.7789   -1.5940 H       1  LIG1        0.0660
     16 C          -0.7186    1.5346    0.5812 C.ar    1  LIG1        0.0365
     17 C           0.4577    2.1864    0.8202 C.ar    1  LIG1        0.0072
     18 C           0.3620    3.5693    0.4385 C.ar    1  LIG1        0.1388
     19 C          -0.8578    3.9376   -0.0568 C.ar    1  LIG1        0.0687
     20 S          -1.9330    2.5804   -0.0857 S.2     1  LIG1       -0.0831
     21 C           1.7182    1.5902    1.3945 C.3     1  LIG1       -0.0351
     22 H           2.2220    2.3414    2.0016 H       1  LIG1        0.0279
     23 H           2.3879    1.2706    0.5933 H       1  LIG1        0.0279
     24 H           1.4754    0.7164    1.9976 H       1  LIG1        0.0279
     25 O           1.4281    4.4130    0.5655 O.3     1  LIG1       -0.4937
     26 C           2.0629    4.7164   -0.6775 C.3     1  LIG1        0.0789
     27 H           2.9298    5.3268   -0.4359 H       1  LIG1        0.0660
     28 H           2.3789    3.7932   -1.1687 H       1  LIG1        0.0660
     29 H           1.3778    5.2693   -1.3241 H       1  LIG1        0.0660
     30 C          -1.2404    5.2706   -0.5243 C.ar    1  LIG1        0.0359
     31 C          -0.9723    6.4661    0.0779 C.ar    1  LIG1        0.0066
     32 C          -1.4708    7.5622   -0.7180 C.ar    1  LIG1        0.1306
     33 C          -2.0923    7.1804   -1.8638 C.ar    1  LIG1        0.0183
     34 S          -2.0873    5.4678   -2.0319 S.2     1  LIG1       -0.0920
     35 H          -2.5622    7.8222   -2.5903 H       1  LIG1        0.0730
     36 C          -0.3172    6.6695    1.4220 C.3     1  LIG1       -0.0351
     37 H          -0.7086    7.5853    1.8659 H       1  LIG1        0.0279
     38 H           0.7670    6.7455    1.3205 H       1  LIG1        0.0279
     39 H          -0.5299    5.8190    2.0692 H       1  LIG1        0.0279
     40 O          -1.3467    8.8642   -0.3196 O.3     1  LIG1       -0.4943
     41 C          -0.0779    9.4281   -0.6386 C.3     1  LIG1        0.0788
     42 H          -0.0837   10.4431   -0.2490 H       1  LIG1        0.0660
     43 H           0.7252    8.8536   -0.1710 H       1  LIG1        0.0660
     44 H           0.0648    9.4405   -1.7213 H       1  LIG1        0.0660
@<TRIPOS>BOND
     1    35    33    1
     2    14    12    1
     3    13    12    1
     4    34    33   ar
     5    34    30   ar
     6    33    32   ar
     7    44    41    1
     8    12    15    1
     9    12    11    1
    10    29    26    1
    11    28    26    1
    12     9     7    1
    13    32    40    1
    14    32    31   ar
    15    26    27    1
    16    26    25    1
    17    41    40    1
    18    41    42    1
    19    41    43    1
    20    30    19    1
    21    30    31   ar
    22    11     3    1
    23    20    19   ar
    24    20    16   ar
    25    19    18   ar
    26    31    36    1
    27     7    10    1
    28     7     2    1
    29     7     8    1
    30     3     2   ar
    31     3     4   ar
    32    18    25    1
    33    18    17   ar
    34    16     4    1
    35    16    17   ar
    36    23    21    1
    37     2     1   ar
    38     4     5   ar
    39    17    21    1
    40     1     5   ar
    41     1     6    1
    42    38    36    1
    43    21    24    1
    44    21    22    1
    45    36    37    1
    46    36    39    1
