@<TRIPOS>MOLECULE
mol_data/opt/m06hf/geoms/mol2/5il5il-.out
 30 31 0 0 0
SMALL
GASTEIGER

@<TRIPOS>ATOM
      1 C          -2.2044   -1.9735    0.5892 C.ar    1  LIG1       -0.0172
      2 C          -0.8583   -2.1130    0.4859 C.ar    1  LIG1       -0.0011
      3 C          -0.2340   -0.8559    0.1635 C.ar    1  LIG1        0.1382
      4 C          -1.1103    0.1854    0.0374 C.ar    1  LIG1        0.0681
      5 S          -2.7344   -0.3543    0.3091 S.2     1  LIG1       -0.0921
      6 H          -2.9268   -2.7433    0.8105 H       1  LIG1        0.0697
      7 C          -0.0585   -3.3809    0.6602 C.3     1  LIG1       -0.0357
      8 H           0.6600   -3.2586    1.4711 H       1  LIG1        0.0279
      9 H           0.4979   -3.5996   -0.2525 H       1  LIG1        0.0279
     10 H          -0.7180   -4.2173    0.8860 H       1  LIG1        0.0279
     11 O           1.1197   -0.7807    0.0062 O.3     1  LIG1       -0.4937
     12 C           1.5541   -0.3915   -1.2977 C.3     1  LIG1        0.0789
     13 H           2.6289   -0.5559   -1.3175 H       1  LIG1        0.0660
     14 H           1.0645   -1.0101   -2.0525 H       1  LIG1        0.0660
     15 H           1.3312    0.6618   -1.4781 H       1  LIG1        0.0660
     16 C          -0.7758    1.5848   -0.2337 C.ar    1  LIG1        0.0359
     17 C           0.1953    2.3224    0.3811 C.ar    1  LIG1        0.0066
     18 C           0.2594    3.6505   -0.1772 C.ar    1  LIG1        0.1306
     19 C          -0.6436    3.8807   -1.1656 C.ar    1  LIG1        0.0183
     20 S          -1.6007    2.4837   -1.4698 S.2     1  LIG1       -0.0920
     21 H          -0.7966    4.8026   -1.7016 H       1  LIG1        0.0730
     22 C           1.0736    1.8675    1.5201 C.3     1  LIG1       -0.0351
     23 H           1.3828    2.7397    2.0963 H       1  LIG1        0.0279
     24 H           1.9563    1.3437    1.1464 H       1  LIG1        0.0279
     25 H           0.5231    1.1748    2.1568 H       1  LIG1        0.0279
     26 O           1.1391    4.5893    0.2869 O.3     1  LIG1       -0.4943
     27 C           2.4132    4.5238   -0.3474 C.3     1  LIG1        0.0788
     28 H           3.0285    5.2918    0.1146 H       1  LIG1        0.0660
     29 H           2.8657    3.5405   -0.1962 H       1  LIG1        0.0660
     30 H           2.3087    4.7166   -1.4171 H       1  LIG1        0.0660
@<TRIPOS>BOND
     1    14    12    1
     2    21    19    1
     3    15    12    1
     4    20    19   ar
     5    20    16   ar
     6    30    27    1
     7    13    12    1
     8    12    11    1
     9    19    18   ar
    10    27    29    1
    11    27    28    1
    12    27    26    1
    13     9     7    1
    14    16     4    1
    15    16    17   ar
    16    18    26    1
    17    18    17   ar
    18    11     3    1
    19     4     3   ar
    20     4     5   ar
    21     3     2   ar
    22     5     1   ar
    23    17    22    1
    24     2     1   ar
    25     2     7    1
    26     1     6    1
    27     7    10    1
    28     7     8    1
    29    24    22    1
    30    22    23    1
    31    22    25    1
