@<TRIPOS>MOLECULE
mol_data/opt/m06hf/geoms/mol2/5il5il5il-5il-.out
 58 61 0 0 0
SMALL
GASTEIGER

@<TRIPOS>ATOM
      1 C          -1.2661   -2.0773    2.1885 C.ar    1  LIG1       -0.0172
      2 C          -0.5014   -2.2097    1.0748 C.ar    1  LIG1       -0.0011
      3 C          -0.1259   -0.9211    0.5537 C.ar    1  LIG1        0.1382
      4 C          -0.6042    0.1341    1.2785 C.ar    1  LIG1        0.0681
      5 S          -1.5373   -0.4306    2.6255 S.2     1  LIG1       -0.0921
      6 H          -1.6936   -2.8674    2.7855 H       1  LIG1        0.0697
      7 C          -0.0733   -3.4974    0.4141 C.3     1  LIG1       -0.0357
      8 H           1.0149   -3.5579    0.3875 H       1  LIG1        0.0279
      9 H          -0.4378   -3.5313   -0.6136 H       1  LIG1        0.0279
     10 H          -0.4686   -4.3526    0.9601 H       1  LIG1        0.0279
     11 O           0.6328   -0.8199   -0.5768 O.3     1  LIG1       -0.4937
     12 C          -0.0665   -0.2933   -1.7063 C.3     1  LIG1        0.0789
     13 H           0.6164   -0.3744   -2.5485 H       1  LIG1        0.0660
     14 H          -0.9669   -0.8816   -1.8943 H       1  LIG1        0.0660
     15 H          -0.3325    0.7518   -1.5351 H       1  LIG1        0.0660
     16 C          -0.3874    1.5555    1.0046 C.ar    1  LIG1        0.0365
     17 C           0.7947    2.1598    0.6801 C.ar    1  LIG1        0.0072
     18 C           0.5983    3.5611    0.4247 C.ar    1  LIG1        0.1388
     19 C          -0.6923    3.9877    0.5676 C.ar    1  LIG1        0.0687
     20 S          -1.7222    2.6670    1.0085 S.2     1  LIG1       -0.0831
     21 C           2.1485    1.5018    0.5941 C.3     1  LIG1       -0.0351
     22 H           2.9113    2.2208    0.8907 H       1  LIG1        0.0279
     23 H           2.3477    1.1693   -0.4268 H       1  LIG1        0.0279
     24 H           2.1791    0.6275    1.2432 H       1  LIG1        0.0279
     25 O           1.6390    4.3713    0.0729 O.3     1  LIG1       -0.4937
     26 C           1.6380    4.7407   -1.3065 C.3     1  LIG1        0.0789
     27 H           2.5272    5.3480   -1.4589 H       1  LIG1        0.0660
     28 H           1.6829    3.8456   -1.9311 H       1  LIG1        0.0660
     29 H           0.7415    5.3178   -1.5423 H       1  LIG1        0.0660
     30 C          -1.1797    5.3545    0.3746 C.ar    1  LIG1        0.0365
     31 C          -0.6117    6.5053    0.8438 C.ar    1  LIG1        0.0072
     32 C          -1.3375    7.6576    0.3809 C.ar    1  LIG1        0.1388
     33 C          -2.4181    7.3693   -0.4044 C.ar    1  LIG1        0.0687
     34 S          -2.5765    5.6588   -0.6126 S.2     1  LIG1       -0.0831
     35 C           0.6016    6.6180    1.7321 C.3     1  LIG1       -0.0351
     36 H           0.4912    7.4911    2.3743 H       1  LIG1        0.0279
     37 H           1.5051    6.7261    1.1286 H       1  LIG1        0.0279
     38 H           0.7075    5.7163    2.3341 H       1  LIG1        0.0279
     39 O          -0.9467    8.9215    0.7182 O.3     1  LIG1       -0.4937
     40 C          -0.3264    9.6338   -0.3531 C.3     1  LIG1        0.0789
     41 H          -0.0102   10.5891    0.0597 H       1  LIG1        0.0660
     42 H           0.5395    9.0770   -0.7181 H       1  LIG1        0.0660
     43 H          -1.0412    9.7897   -1.1640 H       1  LIG1        0.0660
     44 C          -3.3485    8.3300   -0.9999 C.ar    1  LIG1        0.0359
     45 C          -3.9265    9.4073   -0.3910 C.ar    1  LIG1        0.0066
     46 C          -4.7744   10.1211   -1.3148 C.ar    1  LIG1        0.1306
     47 C          -4.8189    9.5808   -2.5600 C.ar    1  LIG1        0.0183
     48 S          -3.8209    8.1834   -2.6672 S.2     1  LIG1       -0.0920
     49 H          -5.4033    9.9276   -3.3960 H       1  LIG1        0.0730
     50 C          -3.7871    9.7987    1.0592 C.3     1  LIG1       -0.0351
     51 H          -4.6916   10.3218    1.3703 H       1  LIG1        0.0279
     52 H          -2.9195   10.4450    1.2064 H       1  LIG1        0.0279
     53 H          -3.6418    8.9077    1.6701 H       1  LIG1        0.0279
     54 O          -5.4951   11.2207   -0.9393 O.3     1  LIG1       -0.4943
     55 C          -4.7492   12.4329   -1.0044 C.3     1  LIG1        0.0788
     56 H          -5.4142   13.2227   -0.6634 H       1  LIG1        0.0660
     57 H          -3.8711   12.3784   -0.3568 H       1  LIG1        0.0660
     58 H          -4.4334   12.6231   -2.0321 H       1  LIG1        0.0660
@<TRIPOS>BOND
     1    49    47    1
     2    48    47   ar
     3    48    44   ar
     4    47    46   ar
     5    13    12    1
     6    58    55    1
     7    28    26    1
     8    14    12    1
     9    12    15    1
    10    12    11    1
    11    29    26    1
    12    27    26    1
    13    46    54    1
    14    46    45   ar
    15    26    25    1
    16    43    40    1
    17    55    54    1
    18    55    56    1
    19    55    57    1
    20    44    33    1
    21    44    45   ar
    22    42    40    1
    23     9     7    1
    24    34    33   ar
    25    34    30   ar
    26    11     3    1
    27    23    21    1
    28    33    32   ar
    29    45    50    1
    30    40    41    1
    31    40    39    1
    32    25    18    1
    33    30    19    1
    34    30    31   ar
    35    32    39    1
    36    32    31   ar
    37     8     7    1
    38     7    10    1
    39     7     2    1
    40    18    19   ar
    41    18    17   ar
    42     3     2   ar
    43     3     4   ar
    44    19    20   ar
    45    21    17    1
    46    21    22    1
    47    21    24    1
    48    17    16   ar
    49    31    35    1
    50    16    20   ar
    51    16     4    1
    52    50    52    1
    53    50    51    1
    54    50    53    1
    55     2     1   ar
    56    37    35    1
    57     4     5   ar
    58    35    38    1
    59    35    36    1
    60     1     5   ar
    61     1     6    1
