@<TRIPOS>MOLECULE
mol_data/opt/m06hf/geoms/mol2/5il5il-5il5il-.out
 58 61 0 0 0
SMALL
GASTEIGER

@<TRIPOS>ATOM
      1 C          -1.2213   -2.0847    2.1909 C.ar    1  LIG1       -0.0172
      2 C          -0.4783   -2.2131    1.0621 C.ar    1  LIG1       -0.0011
      3 C          -0.1135   -0.9226    0.5381 C.ar    1  LIG1        0.1382
      4 C          -0.5778    0.1300    1.2756 C.ar    1  LIG1        0.0681
      5 S          -1.4844   -0.4395    2.6386 S.2     1  LIG1       -0.0921
      6 H          -1.6368   -2.8769    2.7935 H       1  LIG1        0.0697
      7 C          -0.0629   -3.4985    0.3889 C.3     1  LIG1       -0.0357
      8 H           1.0246   -3.5584    0.3408 H       1  LIG1        0.0279
      9 H          -0.4474   -3.5290   -0.6316 H       1  LIG1        0.0279
     10 H          -0.4473   -4.3556    0.9396 H       1  LIG1        0.0279
     11 O           0.6230   -0.8174   -0.6067 O.3     1  LIG1       -0.4937
     12 C          -0.0983   -0.2873   -1.7205 C.3     1  LIG1        0.0789
     13 H           0.5681   -0.3653   -2.5761 H       1  LIG1        0.0660
     14 H          -1.0021   -0.8753   -1.8928 H       1  LIG1        0.0660
     15 H          -0.3612    0.7572   -1.5407 H       1  LIG1        0.0660
     16 C          -0.3669    1.5524    1.0023 C.ar    1  LIG1        0.0365
     17 C           0.8085    2.1581    0.6568 C.ar    1  LIG1        0.0072
     18 C           0.6068    3.5602    0.4100 C.ar    1  LIG1        0.1388
     19 C          -0.6809    3.9859    0.5795 C.ar    1  LIG1        0.0687
     20 S          -1.7017    2.6634    1.0360 S.2     1  LIG1       -0.0831
     21 C           2.1606    1.5009    0.5423 C.3     1  LIG1       -0.0351
     22 H           2.9288    2.2192    0.8263 H       1  LIG1        0.0279
     23 H           2.3400    1.1719   -0.4834 H       1  LIG1        0.0279
     24 H           2.2041    0.6245    1.1877 H       1  LIG1        0.0279
     25 O           1.6402    4.3719    0.0407 O.3     1  LIG1       -0.4937
     26 C           1.6122    4.7459   -1.3372 C.3     1  LIG1        0.0789
     27 H           2.4981    5.3541   -1.5048 H       1  LIG1        0.0660
     28 H           1.6452    3.8529   -1.9655 H       1  LIG1        0.0660
     29 H           0.7111    5.3235   -1.5535 H       1  LIG1        0.0660
     30 C          -1.1724    5.3532    0.4006 C.ar    1  LIG1        0.0365
     31 C          -0.5957    6.5026    0.8625 C.ar    1  LIG1        0.0072
     32 C          -1.3306    7.6562    0.4176 C.ar    1  LIG1        0.1388
     33 C          -2.4263    7.3702   -0.3473 C.ar    1  LIG1        0.0687
     34 S          -2.5882    5.6603   -0.5582 S.2     1  LIG1       -0.0831
     35 C           0.6347    6.6128    1.7273 C.3     1  LIG1       -0.0351
     36 H           0.5366    7.4836    2.3745 H       1  LIG1        0.0279
     37 H           1.5263    6.7232    1.1067 H       1  LIG1        0.0279
     38 H           0.7525    5.7091    2.3242 H       1  LIG1        0.0279
     39 O          -0.9337    8.9191    0.7516 O.3     1  LIG1       -0.4937
     40 C          -0.3347    9.6352   -0.3292 C.3     1  LIG1        0.0789
     41 H          -0.0107   10.5892    0.0805 H       1  LIG1        0.0660
     42 H           0.5241    9.0799   -0.7130 H       1  LIG1        0.0660
     43 H          -1.0651    9.7935   -1.1256 H       1  LIG1        0.0660
     44 C          -3.3684    8.3325   -0.9214 C.ar    1  LIG1        0.0359
     45 C          -3.9347    9.4075   -0.2977 C.ar    1  LIG1        0.0066
     46 C          -4.8007   10.1241   -1.2024 C.ar    1  LIG1        0.1306
     47 C          -4.8693    9.5880   -2.4483 C.ar    1  LIG1        0.0183
     48 S          -3.8732    8.1913   -2.5797 S.2     1  LIG1       -0.0920
     49 H          -5.4700    9.9374   -3.2716 H       1  LIG1        0.0730
     50 C          -3.7671    9.7941    1.1508 C.3     1  LIG1       -0.0351
     51 H          -4.6656   10.3159    1.4812 H       1  LIG1        0.0279
     52 H          -2.8970   10.4403    1.2833 H       1  LIG1        0.0279
     53 H          -3.6098    8.9011    1.7558 H       1  LIG1        0.0279
     54 O          -5.5142   11.2222   -0.8092 O.3     1  LIG1       -0.4943
     55 C          -4.7701   12.4349   -0.8848 C.3     1  LIG1        0.0788
     56 H          -5.4285   13.2233   -0.5283 H       1  LIG1        0.0660
     57 H          -3.8795   12.3785   -0.2546 H       1  LIG1        0.0660
     58 H          -4.4744   12.6286   -1.9178 H       1  LIG1        0.0660
@<TRIPOS>BOND
     1    49    47    1
     2    48    47   ar
     3    48    44   ar
     4    13    12    1
     5    47    46   ar
     6    28    26    1
     7    58    55    1
     8    14    12    1
     9    12    15    1
    10    12    11    1
    11    29    26    1
    12    27    26    1
    13    26    25    1
    14    46    54    1
    15    46    45   ar
    16    43    40    1
    17    44    33    1
    18    44    45   ar
    19    55    54    1
    20    55    56    1
    21    55    57    1
    22    42    40    1
    23     9     7    1
    24    11     3    1
    25    34    33   ar
    26    34    30   ar
    27    23    21    1
    28    33    32   ar
    29    40    41    1
    30    40    39    1
    31    45    50    1
    32    25    18    1
    33     8     7    1
    34     7    10    1
    35     7     2    1
    36    30    19    1
    37    30    31   ar
    38    18    19   ar
    39    18    17   ar
    40    32    39    1
    41    32    31   ar
    42     3     2   ar
    43     3     4   ar
    44    21    17    1
    45    21    22    1
    46    21    24    1
    47    19    20   ar
    48    17    16   ar
    49    31    35    1
    50    16    20   ar
    51    16     4    1
    52     2     1   ar
    53    37    35    1
    54    50    52    1
    55    50    51    1
    56    50    53    1
    57     4     5   ar
    58    35    38    1
    59    35    36    1
    60     1     5   ar
    61     1     6    1
