@<TRIPOS>MOLECULE
mol_data/opt/m06hf/geoms/mol2/5la.out
 13 13 0 0 0
SMALL
GASTEIGER

@<TRIPOS>ATOM
      1 C          -2.1749   -1.6221    0.0000 C.ar    1  LIG1        0.0174
      2 C          -0.8131   -1.6721   -0.0002 C.ar    1  LIG1        0.1271
      3 C          -0.1987   -0.3700    0.0001 C.ar    1  LIG1       -0.0129
      4 C          -1.1206    0.6225    0.0004 C.ar    1  LIG1       -0.0208
      5 S          -2.7326    0.0142    0.0004 S.2     1  LIG1       -0.1013
      6 H          -2.8801   -2.4350   -0.0001 H       1  LIG1        0.0730
      7 H          -0.9464    1.6861    0.0006 H       1  LIG1        0.0694
      8 O          -0.0212   -2.7699   -0.0005 O.3     1  LIG1       -0.4946
      9 C          -0.6911   -4.0151   -0.0007 C.3     1  LIG1        0.0788
     10 H           0.0825   -4.7779   -0.0010 H       1  LIG1        0.0660
     11 H          -1.3122   -4.1131    0.8942 H       1  LIG1        0.0660
     12 H          -1.3124   -4.1126   -0.8955 H       1  LIG1        0.0660
     13 H           0.8721   -0.2334   -0.0000 H       1  LIG1        0.0659
@<TRIPOS>BOND
     1    12     9    1
     2    10     9    1
     3     9     8    1
     4     9    11    1
     5     8     2    1
     6     2     1   ar
     7     2     3   ar
     8     6     1    1
     9    13     3    1
    10     1     5   ar
    11     3     4   ar
    12     4     5   ar
    13     4     7    1
