@<TRIPOS>MOLECULE
mol_data/opt/m06hf/geoms/mol2/5la5la5la.out
 35 37 0 0 0
SMALL
GASTEIGER

@<TRIPOS>ATOM
      1 C          -2.6075   -2.3950   -0.0580 C.ar    1  LIG1        0.0180
      2 C          -1.2628   -2.4426   -0.2686 C.ar    1  LIG1        0.1277
      3 C          -0.6339   -1.1513   -0.2493 C.ar    1  LIG1       -0.0045
      4 C          -1.5267   -0.1489   -0.0188 C.ar    1  LIG1        0.0330
      5 S          -3.1391   -0.7670    0.1844 S.2     1  LIG1       -0.0923
      6 H          -3.3172   -3.2034   -0.0256 H       1  LIG1        0.0730
      7 O          -0.4985   -3.5386   -0.4904 O.3     1  LIG1       -0.4946
      8 C          -1.1831   -4.7748   -0.5014 C.3     1  LIG1        0.0788
      9 H          -0.4360   -5.5376   -0.7027 H       1  LIG1        0.0660
     10 H          -1.6530   -4.9586    0.4685 H       1  LIG1        0.0660
     11 H          -1.9439   -4.7815   -1.2874 H       1  LIG1        0.0660
     12 H           0.4219   -0.9996   -0.4046 H       1  LIG1        0.0666
     13 C          -1.2503    1.2816    0.0763 C.ar    1  LIG1        0.0682
     14 C          -0.0340    1.8714    0.3007 C.ar    1  LIG1        0.1359
     15 C          -0.0922    3.3022    0.3671 C.ar    1  LIG1       -0.0039
     16 C          -1.3620    3.7714    0.1795 C.ar    1  LIG1        0.0336
     17 S          -2.4855    2.4860   -0.0993 S.2     1  LIG1       -0.0833
     18 O           1.0849    1.1197    0.4399 O.3     1  LIG1       -0.4939
     19 C           2.2643    1.7924    0.8462 C.3     1  LIG1        0.0788
     20 H           3.0237    1.0232    0.9552 H       1  LIG1        0.0660
     21 H           2.5759    2.5142    0.0876 H       1  LIG1        0.0660
     22 H           2.1068    2.2982    1.8012 H       1  LIG1        0.0660
     23 H           0.7441    3.9587    0.5464 H       1  LIG1        0.0666
     24 C          -1.7945    5.1662    0.1755 C.ar    1  LIG1        0.0676
     25 C          -1.0040    6.2713   -0.0096 C.ar    1  LIG1        0.1353
     26 C          -1.7398    7.5053    0.0179 C.ar    1  LIG1       -0.0123
     27 C          -3.0667    7.2948    0.2252 C.ar    1  LIG1       -0.0202
     28 S          -3.4451    5.6313    0.4039 S.2     1  LIG1       -0.0924
     29 H          -3.8463    8.0358    0.2922 H       1  LIG1        0.0695
     30 O           0.3352    6.1499   -0.1906 O.3     1  LIG1       -0.4939
     31 C           1.0234    7.2979   -0.6584 C.3     1  LIG1        0.0788
     32 H           2.0418    6.9762   -0.8581 H       1  LIG1        0.0660
     33 H           0.5648    7.6704   -1.5769 H       1  LIG1        0.0660
     34 H           1.0286    8.0808    0.1037 H       1  LIG1        0.0660
     35 H          -1.3035    8.4840   -0.1106 H       1  LIG1        0.0660
@<TRIPOS>BOND
     1    33    31    1
     2    11     8    1
     3    32    31    1
     4     9     8    1
     5    31    30    1
     6    31    34    1
     7     8     7    1
     8     8    10    1
     9     7     2    1
    10    12     3    1
    11     2     3   ar
    12     2     1   ar
    13     3     4   ar
    14    30    25    1
    15    35    26    1
    16    17    13   ar
    17    17    16   ar
    18     1     6    1
    19     1     5   ar
    20     4    13    1
    21     4     5   ar
    22    25    26   ar
    23    25    24   ar
    24    26    27   ar
    25    13    14   ar
    26    21    19    1
    27    24    16    1
    28    24    28   ar
    29    16    15   ar
    30    27    29    1
    31    27    28   ar
    32    14    15   ar
    33    14    18    1
    34    15    23    1
    35    18    19    1
    36    19    20    1
    37    19    22    1
