@<TRIPOS>MOLECULE
mol_data/opt/m06hf/geoms/mol2/5la5la5la-5la.out
 46 49 0 0 0
SMALL
GASTEIGER

@<TRIPOS>ATOM
      1 C          -2.6823   -2.5639    0.4528 C.ar    1  LIG1        0.0180
      2 C          -1.3264   -2.6763    0.4157 C.ar    1  LIG1        0.1277
      3 C          -0.6477   -1.4173    0.2801 C.ar    1  LIG1       -0.0045
      4 C          -1.5174   -0.3687    0.2168 C.ar    1  LIG1        0.0330
      5 S          -3.1673   -0.9086    0.3210 S.2     1  LIG1       -0.0923
      6 H          -3.4266   -3.3351    0.5491 H       1  LIG1        0.0730
      7 O          -0.5914   -3.8123    0.4896 O.3     1  LIG1       -0.4946
      8 C          -1.3293   -5.0112    0.6061 C.3     1  LIG1        0.0788
      9 H          -0.6027   -5.8179    0.6479 H       1  LIG1        0.0660
     10 H          -1.9284   -5.0017    1.5214 H       1  LIG1        0.0660
     11 H          -1.9824   -5.1412   -0.2614 H       1  LIG1        0.0660
     12 H           0.4248   -1.3241    0.2349 H       1  LIG1        0.0666
     13 C          -1.2050    1.0502    0.0748 C.ar    1  LIG1        0.0682
     14 C           0.0338    1.6175   -0.0747 C.ar    1  LIG1        0.1359
     15 C           0.0064    3.0453   -0.1926 C.ar    1  LIG1       -0.0039
     16 C          -1.2669    3.5413   -0.1301 C.ar    1  LIG1        0.0336
     17 S          -2.4318    2.2758    0.0718 S.2     1  LIG1       -0.0833
     18 O           1.1501    0.8492   -0.0985 O.3     1  LIG1       -0.4939
     19 C           2.3809    1.5099   -0.3367 C.3     1  LIG1        0.0788
     20 H           2.6016    2.2136    0.4689 H       1  LIG1        0.0660
     21 H           3.1366    0.7297   -0.3621 H       1  LIG1        0.0660
     22 H           2.3553    2.0333   -1.2950 H       1  LIG1        0.0660
     23 H           0.8665    3.6817   -0.3167 H       1  LIG1        0.0666
     24 C          -1.6826    4.9358   -0.2148 C.ar    1  LIG1        0.0682
     25 C          -0.8759    6.0373   -0.3545 C.ar    1  LIG1        0.1359
     26 C          -1.5953    7.2751   -0.4092 C.ar    1  LIG1       -0.0039
     27 C          -2.9451    7.0879   -0.3043 C.ar    1  LIG1        0.0336
     28 S          -3.3461    5.4152   -0.1297 S.2     1  LIG1       -0.0833
     29 O           0.4723    5.9085   -0.4345 O.3     1  LIG1       -0.4939
     30 C           1.2226    7.1057   -0.5491 C.3     1  LIG1        0.0788
     31 H           2.2659    6.8041   -0.5805 H       1  LIG1        0.0660
     32 H           0.9624    7.6335   -1.4694 H       1  LIG1        0.0660
     33 H           1.0483    7.7499    0.3155 H       1  LIG1        0.0660
     34 H          -1.1585    8.2538   -0.5229 H       1  LIG1        0.0666
     35 C          -3.9842    8.1126   -0.3161 C.ar    1  LIG1        0.0676
     36 C          -3.8204    9.4538   -0.0805 C.ar    1  LIG1        0.1353
     37 C          -5.0512   10.1935   -0.1402 C.ar    1  LIG1       -0.0123
     38 C          -6.1091    9.3870   -0.4217 C.ar    1  LIG1       -0.0202
     39 S          -5.6472    7.7487   -0.6323 S.2     1  LIG1       -0.0924
     40 H          -7.1426    9.6732   -0.5266 H       1  LIG1        0.0695
     41 O          -2.5934    9.9727    0.1749 O.3     1  LIG1       -0.4939
     42 C          -2.5472   11.3171    0.6224 C.3     1  LIG1        0.0788
     43 H          -1.5050   11.5198    0.8535 H       1  LIG1        0.0660
     44 H          -2.8884   11.9961   -0.1620 H       1  LIG1        0.0660
     45 H          -3.1566   11.4426    1.5200 H       1  LIG1        0.0660
     46 H          -5.1379   11.2568    0.0200 H       1  LIG1        0.0660
@<TRIPOS>BOND
     1    32    30    1
     2    22    19    1
     3    39    38   ar
     4    39    35   ar
     5    31    30    1
     6    30    29    1
     7    30    33    1
     8    40    38    1
     9    34    26    1
    10    29    25    1
    11    38    37   ar
    12    26    25   ar
    13    26    27   ar
    14    21    19    1
    15    25    24   ar
    16    19    18    1
    17    19    20    1
    18    23    15    1
    19    35    27    1
    20    35    36   ar
    21    27    28   ar
    22    11     8    1
    23    24    16    1
    24    24    28   ar
    25    15    16   ar
    26    15    14   ar
    27    44    42    1
    28    37    36   ar
    29    37    46    1
    30    16    17   ar
    31    18    14    1
    32    36    41    1
    33    14    13   ar
    34    17    13   ar
    35    13     4    1
    36    41    42    1
    37     4     3   ar
    38     4     5   ar
    39    12     3    1
    40     3     2   ar
    41     5     1   ar
    42     2     1   ar
    43     2     7    1
    44     1     6    1
    45     7     8    1
    46     8     9    1
    47     8    10    1
    48    42    43    1
    49    42    45    1
