@<TRIPOS>MOLECULE
mol_data/opt/m06hf/geoms/mol2/5la5la-5la-5la.out
 46 49 0 0 0
SMALL
GASTEIGER

@<TRIPOS>ATOM
      1 C          -2.6656   -2.5834   -0.0066 C.ar    1  LIG1        0.0180
      2 C          -1.3106   -2.6891   -0.0787 C.ar    1  LIG1        0.1277
      3 C          -0.6328   -1.4224   -0.0676 C.ar    1  LIG1       -0.0045
      4 C          -1.5022   -0.3748    0.0138 C.ar    1  LIG1        0.0330
      5 S          -3.1508   -0.9251    0.0785 S.2     1  LIG1       -0.0923
      6 H          -3.4093   -3.3612    0.0014 H       1  LIG1        0.0730
      7 O          -0.5755   -3.8250   -0.1546 O.3     1  LIG1       -0.4946
      8 C          -1.3112   -5.0309   -0.1446 C.3     1  LIG1        0.0788
      9 H          -0.5843   -5.8361   -0.2051 H       1  LIG1        0.0660
     10 H          -1.8876   -5.1166    0.7808 H       1  LIG1        0.0660
     11 H          -1.9855   -5.0722   -1.0050 H       1  LIG1        0.0660
     12 H           0.4389   -1.3232   -0.1185 H       1  LIG1        0.0666
     13 C          -1.1901    1.0506    0.0539 C.ar    1  LIG1        0.0682
     14 C           0.0524    1.6293    0.0677 C.ar    1  LIG1        0.1359
     15 C           0.0237    3.0612    0.1121 C.ar    1  LIG1       -0.0039
     16 C          -1.2543    3.5489    0.1318 C.ar    1  LIG1        0.0336
     17 S          -2.4219    2.2704    0.0964 S.2     1  LIG1       -0.0833
     18 O           1.1727    0.8671    0.0372 O.3     1  LIG1       -0.4939
     19 C           2.4140    1.5438    0.1345 C.3     1  LIG1        0.0788
     20 H           3.1753    0.7686    0.1369 H       1  LIG1        0.0660
     21 H           2.5601    2.2041   -0.7230 H       1  LIG1        0.0660
     22 H           2.4655    2.1176    1.0625 H       1  LIG1        0.0660
     23 H           0.8862    3.7063    0.1290 H       1  LIG1        0.0666
     24 C          -1.6722    4.9444    0.1780 C.ar    1  LIG1        0.0682
     25 C          -0.8654    6.0546    0.1904 C.ar    1  LIG1        0.1359
     26 C          -1.5874    7.2910    0.2408 C.ar    1  LIG1       -0.0039
     27 C          -2.9398    7.0940    0.2609 C.ar    1  LIG1        0.0336
     28 S          -3.3408    5.4130    0.2095 S.2     1  LIG1       -0.0833
     29 O           0.4857    5.9349    0.1622 O.3     1  LIG1       -0.4939
     30 C           1.2335    7.1391    0.1493 C.3     1  LIG1        0.0788
     31 H           2.2780    6.8431    0.1077 H       1  LIG1        0.0660
     32 H           0.9814    7.7357   -0.7301 H       1  LIG1        0.0660
     33 H           1.0480    7.7142    1.0592 H       1  LIG1        0.0660
     34 H          -1.1504    8.2760    0.2652 H       1  LIG1        0.0666
     35 C          -3.9822    8.1142    0.3069 C.ar    1  LIG1        0.0676
     36 C          -3.8496    9.4416   -0.0120 C.ar    1  LIG1        0.1353
     37 C          -5.0769   10.1790    0.1128 C.ar    1  LIG1       -0.0123
     38 C          -6.1007    9.3849    0.5252 C.ar    1  LIG1       -0.0202
     39 S          -5.6095    7.7618    0.7818 S.2     1  LIG1       -0.0924
     40 H          -7.1239    9.6727    0.7021 H       1  LIG1        0.0695
     41 O          -2.6528    9.9504   -0.3976 O.3     1  LIG1       -0.4939
     42 C          -2.6554   11.2693   -0.9177 C.3     1  LIG1        0.0788
     43 H          -1.6381   11.4631   -1.2466 H       1  LIG1        0.0660
     44 H          -3.3395   11.3446   -1.7657 H       1  LIG1        0.0660
     45 H          -2.9345   11.9878   -0.1440 H       1  LIG1        0.0660
     46 H          -5.1853   11.2320   -0.0952 H       1  LIG1        0.0660
@<TRIPOS>BOND
     1    44    42    1
     2    43    42    1
     3    11     8    1
     4    42    41    1
     5    42    45    1
     6    32    30    1
     7    21    19    1
     8    41    36    1
     9     9     8    1
    10     7     8    1
    11     7     2    1
    12     8    10    1
    13    12     3    1
    14    46    37    1
    15     2     3   ar
    16     2     1   ar
    17     3     4   ar
    18    36    37   ar
    19    36    35   ar
    20     1     6    1
    21     1     5   ar
    22     4    13    1
    23     4     5   ar
    24    18    14    1
    25    18    19    1
    26    13    14   ar
    27    13    17   ar
    28    14    15   ar
    29    17    16   ar
    30    31    30    1
    31    15    23    1
    32    15    16   ar
    33    37    38   ar
    34    16    24    1
    35    19    20    1
    36    19    22    1
    37    30    29    1
    38    30    33    1
    39    29    25    1
    40    24    25   ar
    41    24    28   ar
    42    25    26   ar
    43    28    27   ar
    44    26    27   ar
    45    26    34    1
    46    27    35    1
    47    35    39   ar
    48    38    40    1
    49    38    39   ar
