@<TRIPOS>MOLECULE
mol_data/opt/m06hf/geoms/mol2/5la5la5la-.out
 35 37 0 0 0
SMALL
GASTEIGER

@<TRIPOS>ATOM
      1 C          -2.7103   -2.3445   -0.2063 C.ar    1  LIG1        0.0180
      2 C          -1.3814   -2.4322    0.0784 C.ar    1  LIG1        0.1277
      3 C          -0.7232   -1.1568    0.1394 C.ar    1  LIG1       -0.0045
      4 C          -1.5784   -0.1256   -0.1064 C.ar    1  LIG1        0.0330
      5 S          -3.1900   -0.6967   -0.4220 S.2     1  LIG1       -0.0923
      6 H          -3.4352   -3.1336   -0.3068 H       1  LIG1        0.0730
      7 O          -0.6562   -3.5535    0.3052 O.3     1  LIG1       -0.4946
      8 C          -1.3682   -4.7721    0.2347 C.3     1  LIG1        0.0788
      9 H          -0.6514   -5.5593    0.4516 H       1  LIG1        0.0660
     10 H          -2.1730   -4.7861    0.9754 H       1  LIG1        0.0660
     11 H          -1.7855   -4.9119   -0.7662 H       1  LIG1        0.0660
     12 H           0.3251   -1.0365    0.3595 H       1  LIG1        0.0666
     13 C          -1.2645    1.3000   -0.1362 C.ar    1  LIG1        0.0682
     14 C          -0.0242    1.8668   -0.2708 C.ar    1  LIG1        0.1359
     15 C          -0.0460    3.3000   -0.2908 C.ar    1  LIG1       -0.0039
     16 C          -1.3135    3.7939   -0.1593 C.ar    1  LIG1        0.0336
     17 S          -2.4800    2.5280    0.0108 S.2     1  LIG1       -0.0833
     18 O           1.0834    1.0927   -0.3724 O.3     1  LIG1       -0.4939
     19 C           2.2992    1.7493   -0.6875 C.3     1  LIG1        0.0788
     20 H           3.0459    0.9657   -0.7799 H       1  LIG1        0.0660
     21 H           2.2085    2.2903   -1.6319 H       1  LIG1        0.0660
     22 H           2.5830    2.4376    0.1121 H       1  LIG1        0.0660
     23 H           0.8139    3.9412   -0.3997 H       1  LIG1        0.0666
     24 C          -1.7137    5.1980   -0.1316 C.ar    1  LIG1        0.0676
     25 C          -0.9103    6.2764    0.1363 C.ar    1  LIG1        0.1353
     26 C          -1.6150    7.5285    0.1099 C.ar    1  LIG1       -0.0123
     27 C          -2.9323    7.3578   -0.1793 C.ar    1  LIG1       -0.0202
     28 S          -3.3375    5.7110   -0.4368 S.2     1  LIG1       -0.0924
     29 H          -3.6897    8.1196   -0.2648 H       1  LIG1        0.0695
     30 O           0.4133    6.1162    0.3885 O.3     1  LIG1       -0.4939
     31 C           1.0994    7.2306    0.9340 C.3     1  LIG1        0.0788
     32 H           2.0970    6.8775    1.1798 H       1  LIG1        0.0660
     33 H           1.1662    8.0381    0.2009 H       1  LIG1        0.0660
     34 H           0.5973    7.5837    1.8373 H       1  LIG1        0.0660
     35 H          -1.1647    8.4913    0.2968 H       1  LIG1        0.0660
@<TRIPOS>BOND
     1    21    19    1
     2    20    19    1
     3    11     8    1
     4    19    18    1
     5    19    22    1
     6    28    27   ar
     7    28    24   ar
     8     5     1   ar
     9     5     4   ar
    10    23    15    1
    11    18    14    1
    12     6     1    1
    13    15    14   ar
    14    15    16   ar
    15    14    13   ar
    16    29    27    1
    17     1     2   ar
    18    27    26   ar
    19    16    24    1
    20    16    17   ar
    21    13     4    1
    22    13    17   ar
    23    24    25   ar
    24     4     3   ar
    25     2     3   ar
    26     2     7    1
    27    26    25   ar
    28    26    35    1
    29    25    30    1
    30     3    12    1
    31    33    31    1
    32     8     7    1
    33     8     9    1
    34     8    10    1
    35    30    31    1
    36    31    32    1
    37    31    34    1
