@<TRIPOS>MOLECULE
mol_data/opt/m06hf/geoms/mol2/5la5la-.out
 24 25 0 0 0
SMALL
GASTEIGER

@<TRIPOS>ATOM
      1 C          -2.6115   -2.0400    0.0642 C.ar    1  LIG1        0.0180
      2 C          -1.2676   -2.1351   -0.1298 C.ar    1  LIG1        0.1277
      3 C          -0.6020   -0.8619   -0.1681 C.ar    1  LIG1       -0.0045
      4 C          -1.4692    0.1748    0.0026 C.ar    1  LIG1        0.0330
      5 S          -3.0991   -0.3871    0.2143 S.2     1  LIG1       -0.0923
      6 H          -3.3439   -2.8257    0.1317 H       1  LIG1        0.0730
      7 O          -0.5317   -3.2615   -0.2826 O.3     1  LIG1       -0.4946
      8 C          -1.2522   -4.4768   -0.2496 C.3     1  LIG1        0.0788
      9 H          -0.5225   -5.2689   -0.3954 H       1  LIG1        0.0660
     10 H          -1.7481   -4.5995    0.7170 H       1  LIG1        0.0660
     11 H          -1.9946   -4.5014   -1.0521 H       1  LIG1        0.0660
     12 H           0.4590   -0.7506   -0.3177 H       1  LIG1        0.0666
     13 C          -1.1616    1.6048    0.0271 C.ar    1  LIG1        0.0676
     14 C           0.0811    2.1821    0.0574 C.ar    1  LIG1        0.1353
     15 C           0.0405    3.6190    0.0945 C.ar    1  LIG1       -0.0123
     16 C          -1.2356    4.0862    0.0904 C.ar    1  LIG1       -0.0202
     17 S          -2.3944    2.8217    0.0378 S.2     1  LIG1       -0.0924
     18 H          -1.5578    5.1141    0.1121 H       1  LIG1        0.0695
     19 O           1.2029    1.4215    0.0494 O.3     1  LIG1       -0.4939
     20 C           2.4406    2.0956    0.1953 C.3     1  LIG1        0.0788
     21 H           3.2026    1.3214    0.2158 H       1  LIG1        0.0660
     22 H           2.6170    2.7636   -0.6511 H       1  LIG1        0.0660
     23 H           2.4615    2.6600    1.1307 H       1  LIG1        0.0660
     24 H           0.9096    4.2578    0.1222 H       1  LIG1        0.0660
@<TRIPOS>BOND
     1    11     8    1
     2    22    20    1
     3     9     8    1
     4    12     3    1
     5     7     8    1
     6     7     2    1
     7     8    10    1
     8     3     2   ar
     9     3     4   ar
    10     2     1   ar
    11     4    13    1
    12     4     5   ar
    13    13    17   ar
    14    13    14   ar
    15    17    16   ar
    16    19    14    1
    17    19    20    1
    18    14    15   ar
    19     1     6    1
    20     1     5   ar
    21    16    15   ar
    22    16    18    1
    23    15    24    1
    24    20    21    1
    25    20    23    1
