@<TRIPOS>MOLECULE
mol_data/opt/m06hf/geoms/mol2/5la5la-5la-.out
 35 37 0 0 0
SMALL
GASTEIGER

@<TRIPOS>ATOM
      1 C          -2.6291   -2.3843    0.1322 C.ar    1  LIG1        0.0180
      2 C          -1.3007   -2.4419   -0.1625 C.ar    1  LIG1        0.1277
      3 C          -0.6656   -1.1540   -0.1989 C.ar    1  LIG1       -0.0045
      4 C          -1.5372   -0.1439    0.0752 C.ar    1  LIG1        0.0330
      5 S          -3.1364   -0.7506    0.3878 S.2     1  LIG1       -0.0923
      6 H          -3.3392   -3.1883    0.2194 H       1  LIG1        0.0730
      7 O          -0.5573   -3.5448   -0.4188 O.3     1  LIG1       -0.4946
      8 C          -1.2472   -4.7772   -0.3716 C.3     1  LIG1        0.0788
      9 H          -0.5180   -5.5464   -0.6107 H       1  LIG1        0.0660
     10 H          -1.6555   -4.9470    0.6283 H       1  LIG1        0.0660
     11 H          -2.0563   -4.7887   -1.1076 H       1  LIG1        0.0660
     12 H           0.3790   -1.0101   -0.4225 H       1  LIG1        0.0666
     13 C          -1.2484    1.2860    0.1351 C.ar    1  LIG1        0.0682
     14 C          -0.0176    1.8716    0.2750 C.ar    1  LIG1        0.1359
     15 C          -0.0645    3.3034    0.3274 C.ar    1  LIG1       -0.0039
     16 C          -1.3414    3.7774    0.2146 C.ar    1  LIG1        0.0336
     17 S          -2.4864    2.4951    0.0230 S.2     1  LIG1       -0.0833
     18 O           1.1043    1.1153    0.3525 O.3     1  LIG1       -0.4939
     19 C           2.3102    1.7864    0.6748 C.3     1  LIG1        0.0788
     20 H           3.0713    1.0144    0.7450 H       1  LIG1        0.0660
     21 H           2.5765    2.4972   -0.1110 H       1  LIG1        0.0660
     22 H           2.2162    2.3045    1.6315 H       1  LIG1        0.0660
     23 H           0.7846    3.9573    0.4455 H       1  LIG1        0.0666
     24 C          -1.7665    5.1745    0.2208 C.ar    1  LIG1        0.0676
     25 C          -0.9840    6.2728   -0.0275 C.ar    1  LIG1        0.1353
     26 C          -1.7106    7.5112    0.0313 C.ar    1  LIG1       -0.0123
     27 C          -3.0228    7.3106    0.3245 C.ar    1  LIG1       -0.0202
     28 S          -3.3971    5.6515    0.5472 S.2     1  LIG1       -0.0924
     29 H          -3.7930    8.0567    0.4316 H       1  LIG1        0.0695
     30 O           0.3405    6.1418   -0.2911 O.3     1  LIG1       -0.4939
     31 C           1.0032    7.2803   -0.8155 C.3     1  LIG1        0.0788
     32 H           2.0054    6.9506   -1.0752 H       1  LIG1        0.0660
     33 H           0.4893    7.6444   -1.7076 H       1  LIG1        0.0660
     34 H           1.0604    8.0722   -0.0649 H       1  LIG1        0.0660
     35 H          -1.2786    8.4858   -0.1365 H       1  LIG1        0.0660
@<TRIPOS>BOND
     1    33    31    1
     2    11     8    1
     3    32    31    1
     4    31    30    1
     5    31    34    1
     6     9     8    1
     7    12     3    1
     8     7     8    1
     9     7     2    1
    10     8    10    1
    11    30    25    1
    12     3     2   ar
    13     3     4   ar
    14     2     1   ar
    15    35    26    1
    16    21    19    1
    17    25    26   ar
    18    25    24   ar
    19    17    13   ar
    20    17    16   ar
    21    26    27   ar
    22     4    13    1
    23     4     5   ar
    24     1     6    1
    25     1     5   ar
    26    13    14   ar
    27    16    24    1
    28    16    15   ar
    29    24    28   ar
    30    14    15   ar
    31    14    18    1
    32    27    29    1
    33    27    28   ar
    34    15    23    1
    35    18    19    1
    36    19    20    1
    37    19    22    1
