@<TRIPOS>MOLECULE
mol_data/opt/m06hf/geoms/mol2/5la5la-5la.out
 35 37 0 0 0
SMALL
GASTEIGER

@<TRIPOS>ATOM
      1 C          -2.6970   -2.3548   -0.0846 C.ar    1  LIG1        0.0180
      2 C          -1.3610   -2.4232   -0.3404 C.ar    1  LIG1        0.1277
      3 C          -0.7067   -1.1447   -0.3150 C.ar    1  LIG1       -0.0045
      4 C          -1.5717   -0.1308   -0.0345 C.ar    1  LIG1        0.0330
      5 S          -3.1884   -0.7226    0.2090 S.2     1  LIG1       -0.0923
      6 H          -3.4209   -3.1502   -0.0456 H       1  LIG1        0.0730
      7 O          -0.6260   -3.5285   -0.6101 O.3     1  LIG1       -0.4946
      8 C          -1.3346   -4.7510   -0.6243 C.3     1  LIG1        0.0788
      9 H          -0.6095   -5.5233   -0.8660 H       1  LIG1        0.0660
     10 H          -1.7761   -4.9467    0.3566 H       1  LIG1        0.0660
     11 H          -2.1207   -4.7265   -1.3846 H       1  LIG1        0.0660
     12 H           0.3463   -1.0097   -0.5019 H       1  LIG1        0.0666
     13 C          -1.2644    1.2918    0.0812 C.ar    1  LIG1        0.0682
     14 C          -0.0301    1.8536    0.2776 C.ar    1  LIG1        0.1359
     15 C          -0.0581    3.2835    0.3754 C.ar    1  LIG1       -0.0039
     16 C          -1.3239    3.7805    0.2397 C.ar    1  LIG1        0.0336
     17 S          -2.4808    2.5228   -0.0285 S.2     1  LIG1       -0.0833
     18 O           1.0778    1.0781    0.3641 O.3     1  LIG1       -0.4939
     19 C           2.2828    1.7195    0.7450 C.3     1  LIG1        0.0788
     20 H           3.0301    0.9340    0.8129 H       1  LIG1        0.0660
     21 H           2.5835    2.4514   -0.0083 H       1  LIG1        0.0660
     22 H           2.1665    2.2077    1.7150 H       1  LIG1        0.0660
     23 H           0.7963    3.9201    0.5406 H       1  LIG1        0.0666
     24 C          -1.7289    5.1830    0.2789 C.ar    1  LIG1        0.0676
     25 C          -0.9233    6.2767    0.0908 C.ar    1  LIG1        0.1353
     26 C          -1.6335    7.5235    0.1681 C.ar    1  LIG1       -0.0123
     27 C          -2.9569    7.3337    0.4144 C.ar    1  LIG1       -0.0202
     28 S          -3.3618    5.6742    0.5710 S.2     1  LIG1       -0.0924
     29 H          -3.7193    8.0877    0.5225 H       1  LIG1        0.0695
     30 O           0.4067    6.1339   -0.1366 O.3     1  LIG1       -0.4939
     31 C           1.1016    7.2785   -0.6028 C.3     1  LIG1        0.0788
     32 H           2.1065    6.9420   -0.8425 H       1  LIG1        0.0660
     33 H           0.6208    7.6793   -1.4976 H       1  LIG1        0.0660
     34 H           1.1469    8.0447    0.1750 H       1  LIG1        0.0660
     35 H          -1.1826    8.4963    0.0456 H       1  LIG1        0.0660
@<TRIPOS>BOND
     1    33    31    1
     2    11     8    1
     3     9     8    1
     4    32    31    1
     5     8     7    1
     6     8    10    1
     7     7     2    1
     8    31    30    1
     9    31    34    1
    10    12     3    1
    11     2     3   ar
    12     2     1   ar
    13     3     4   ar
    14    30    25    1
    15     1     6    1
    16     1     5   ar
    17     4    13    1
    18     4     5   ar
    19    17    13   ar
    20    17    16   ar
    21    21    19    1
    22    35    26    1
    23    13    14   ar
    24    25    26   ar
    25    25    24   ar
    26    26    27   ar
    27    16    24    1
    28    16    15   ar
    29    14    18    1
    30    14    15   ar
    31    24    28   ar
    32    18    19    1
    33    15    23    1
    34    27    29    1
    35    27    28   ar
    36    19    20    1
    37    19    22    1
