@<TRIPOS>MOLECULE
mol_data/opt/m06hf/geoms/mol2/5la5la5la5la.out
 46 49 0 0 0
SMALL
GASTEIGER

@<TRIPOS>ATOM
      1 C          -2.6423   -2.5875    0.0593 C.ar    1  LIG1        0.0180
      2 C          -1.2867   -2.6891   -0.0066 C.ar    1  LIG1        0.1277
      3 C          -0.6134   -1.4200   -0.0095 C.ar    1  LIG1       -0.0045
      4 C          -1.4869   -0.3746    0.0554 C.ar    1  LIG1        0.0330
      5 S          -3.1337   -0.9300    0.1214 S.2     1  LIG1       -0.0923
      6 H          -3.3833   -3.3677    0.0746 H       1  LIG1        0.0730
      7 O          -0.5473   -3.8233   -0.0654 O.3     1  LIG1       -0.4946
      8 C          -1.2787   -5.0316   -0.0427 C.3     1  LIG1        0.0788
      9 H          -0.5487   -5.8349   -0.0904 H       1  LIG1        0.0660
     10 H          -1.8581   -5.1077    0.8816 H       1  LIG1        0.0660
     11 H          -1.9498   -5.0863   -0.9049 H       1  LIG1        0.0660
     12 H           0.4580   -1.3176   -0.0579 H       1  LIG1        0.0666
     13 C          -1.1800    1.0524    0.0782 C.ar    1  LIG1        0.0682
     14 C           0.0603    1.6356    0.0891 C.ar    1  LIG1        0.1359
     15 C           0.0265    3.0679    0.1149 C.ar    1  LIG1       -0.0039
     16 C          -1.2533    3.5512    0.1237 C.ar    1  LIG1        0.0336
     17 S          -2.4163    2.2682    0.1005 S.2     1  LIG1       -0.0833
     18 O           1.1834    0.8772    0.0723 O.3     1  LIG1       -0.4939
     19 C           2.4220    1.5595    0.1657 C.3     1  LIG1        0.0788
     20 H           3.1860    0.7871    0.1806 H       1  LIG1        0.0660
     21 H           2.5689    2.2095   -0.6996 H       1  LIG1        0.0660
     22 H           2.4680    2.1451    1.0865 H       1  LIG1        0.0660
     23 H           0.8866    3.7162    0.1267 H       1  LIG1        0.0666
     24 C          -1.6764    4.9457    0.1503 C.ar    1  LIG1        0.0682
     25 C          -0.8735    6.0588    0.1515 C.ar    1  LIG1        0.1359
     26 C          -1.6001    7.2932    0.1832 C.ar    1  LIG1       -0.0039
     27 C          -2.9518    7.0916    0.2009 C.ar    1  LIG1        0.0336
     28 S          -3.3467    5.4086    0.1695 S.2     1  LIG1       -0.0833
     29 O           0.4780    5.9436    0.1299 O.3     1  LIG1       -0.4939
     30 C           1.2217    7.1501    0.1045 C.3     1  LIG1        0.0788
     31 H           2.2674    6.8574    0.0707 H       1  LIG1        0.0660
     32 H           0.9709    7.7346   -0.7834 H       1  LIG1        0.0660
     33 H           1.0306    7.7361    1.0063 H       1  LIG1        0.0660
     34 H          -1.1666    8.2799    0.1967 H       1  LIG1        0.0666
     35 C          -3.9980    8.1086    0.2299 C.ar    1  LIG1        0.0676
     36 C          -3.8688    9.4323   -0.1054 C.ar    1  LIG1        0.1353
     37 C          -5.0991   10.1669    0.0054 C.ar    1  LIG1       -0.0123
     38 C          -6.1216    9.3745    0.4240 C.ar    1  LIG1       -0.0202
     39 S          -5.6259    7.7566    0.7032 S.2     1  LIG1       -0.0924
     40 H          -7.1465    9.6610    0.5935 H       1  LIG1        0.0695
     41 O          -2.6723    9.9403   -0.4930 O.3     1  LIG1       -0.4939
     42 C          -2.6775   11.2525   -1.0297 C.3     1  LIG1        0.0788
     43 H          -1.6597   11.4457   -1.3573 H       1  LIG1        0.0660
     44 H          -3.3586   11.3148   -1.8812 H       1  LIG1        0.0660
     45 H          -2.9620   11.9798   -0.2662 H       1  LIG1        0.0660
     46 H          -5.2104   11.2168   -0.2165 H       1  LIG1        0.0660
@<TRIPOS>BOND
     1    44    42    1
     2    43    42    1
     3    42    41    1
     4    42    45    1
     5    11     8    1
     6    32    30    1
     7    21    19    1
     8    41    36    1
     9    46    37    1
    10    36    37   ar
    11    36    35   ar
    12     9     8    1
    13     7     8    1
    14     7     2    1
    15    12     3    1
    16     8    10    1
    17     3     2   ar
    18     3     4   ar
    19     2     1   ar
    20    37    38   ar
    21     4    13    1
    22     4     5   ar
    23     1     6    1
    24     1     5   ar
    25    31    30    1
    26    18    14    1
    27    18    19    1
    28    13    14   ar
    29    13    17   ar
    30    14    15   ar
    31    17    16   ar
    32    30    29    1
    33    30    33    1
    34    15    16   ar
    35    15    23    1
    36    16    24    1
    37    29    25    1
    38    24    25   ar
    39    24    28   ar
    40    25    26   ar
    41    19    20    1
    42    19    22    1
    43    28    27   ar
    44    26    34    1
    45    26    27   ar
    46    27    35    1
    47    35    39   ar
    48    38    40    1
    49    38    39   ar
