@<TRIPOS>MOLECULE
mol_data/opt/m06hf/geoms/mol2/5la5la-5la-5la-.out
 46 49 0 0 0
SMALL
GASTEIGER

@<TRIPOS>ATOM
      1 C          -2.6422   -2.5867   -0.1180 C.ar    1  LIG1        0.0180
      2 C          -1.2849   -2.6877   -0.1322 C.ar    1  LIG1        0.1277
      3 C          -0.6125   -1.4192   -0.0816 C.ar    1  LIG1       -0.0045
      4 C          -1.4881   -0.3749   -0.0294 C.ar    1  LIG1        0.0330
      5 S          -3.1361   -0.9306   -0.0406 S.2     1  LIG1       -0.0923
      6 H          -3.3829   -3.3667   -0.1486 H       1  LIG1        0.0730
      7 O          -0.5435   -3.8208   -0.1855 O.3     1  LIG1       -0.4946
      8 C          -1.2749   -5.0289   -0.2171 C.3     1  LIG1        0.0788
      9 H          -0.5434   -5.8315   -0.2525 H       1  LIG1        0.0660
     10 H          -1.8906   -5.1239    0.6817 H       1  LIG1        0.0660
     11 H          -1.9112   -5.0652   -1.1062 H       1  LIG1        0.0660
     12 H           0.4601   -1.3165   -0.0852 H       1  LIG1        0.0666
     13 C          -1.1828    1.0511    0.0357 C.ar    1  LIG1        0.0682
     14 C           0.0560    1.6333    0.1077 C.ar    1  LIG1        0.1359
     15 C           0.0208    3.0647    0.1625 C.ar    1  LIG1       -0.0039
     16 C          -1.2585    3.5484    0.1312 C.ar    1  LIG1        0.0336
     17 S          -2.4193    2.2668    0.0351 S.2     1  LIG1       -0.0833
     18 O           1.1791    0.8747    0.1192 O.3     1  LIG1       -0.4939
     19 C           2.4129    1.5543    0.2755 C.3     1  LIG1        0.0788
     20 H           3.1759    0.7814    0.3041 H       1  LIG1        0.0660
     21 H           2.5935    2.2223   -0.5695 H       1  LIG1        0.0660
     22 H           2.4225    2.1203    1.2096 H       1  LIG1        0.0660
     23 H           0.8795    3.7122    0.2219 H       1  LIG1        0.0666
     24 C          -1.6828    4.9423    0.1707 C.ar    1  LIG1        0.0682
     25 C          -0.8809    6.0547    0.2271 C.ar    1  LIG1        0.1359
     26 C          -1.6085    7.2885    0.2564 C.ar    1  LIG1       -0.0039
     27 C          -2.9598    7.0873    0.2165 C.ar    1  LIG1        0.0336
     28 S          -3.3526    5.4056    0.1340 S.2     1  LIG1       -0.0833
     29 O           0.4705    5.9392    0.2562 O.3     1  LIG1       -0.4939
     30 C           1.2142    7.1456    0.2855 C.3     1  LIG1        0.0788
     31 H           2.2606    6.8531    0.2865 H       1  LIG1        0.0660
     32 H           0.9983    7.7489   -0.5989 H       1  LIG1        0.0660
     33 H           0.9878    7.7126    1.1913 H       1  LIG1        0.0660
     34 H          -1.1762    8.2745    0.3078 H       1  LIG1        0.0666
     35 C          -4.0067    8.1040    0.2260 C.ar    1  LIG1        0.0676
     36 C          -3.8648    9.4344   -0.0760 C.ar    1  LIG1        0.1353
     37 C          -5.0987   10.1672    0.0019 C.ar    1  LIG1       -0.0123
     38 C          -6.1367    9.3666    0.3632 C.ar    1  LIG1       -0.0202
     39 S          -5.6517    7.7429    0.6273 S.2     1  LIG1       -0.0924
     40 H          -7.1675    9.6499    0.4983 H       1  LIG1        0.0695
     41 O          -2.6541    9.9499   -0.4054 O.3     1  LIG1       -0.4939
     42 C          -2.6387   11.2732   -0.9141 C.3     1  LIG1        0.0788
     43 H          -1.6088   11.4728   -1.1970 H       1  LIG1        0.0660
     44 H          -3.2857   11.3536   -1.7903 H       1  LIG1        0.0660
     45 H          -2.9535   11.9843   -0.1473 H       1  LIG1        0.0660
     46 H          -5.2016   11.2216   -0.2019 H       1  LIG1        0.0660
@<TRIPOS>BOND
     1    44    42    1
     2    43    42    1
     3    11     8    1
     4    42    41    1
     5    42    45    1
     6    32    30    1
     7    21    19    1
     8    41    36    1
     9     9     8    1
    10     8     7    1
    11     8    10    1
    12    46    37    1
    13     7     2    1
    14     6     1    1
    15     2     1   ar
    16     2     3   ar
    17     1     5   ar
    18    12     3    1
    19     3     4   ar
    20    36    37   ar
    21    36    35   ar
    22     5     4   ar
    23     4    13    1
    24    37    38   ar
    25    17    13   ar
    26    17    16   ar
    27    13    14   ar
    28    14    18    1
    29    14    15   ar
    30    18    19    1
    31    16    15   ar
    32    16    24    1
    33    28    24   ar
    34    28    27   ar
    35    15    23    1
    36    24    25   ar
    37    27    35    1
    38    27    26   ar
    39    35    39   ar
    40    25    29    1
    41    25    26   ar
    42    29    30    1
    43    26    34    1
    44    19    20    1
    45    19    22    1
    46    30    31    1
    47    30    33    1
    48    38    40    1
    49    38    39   ar
