@<TRIPOS>MOLECULE
mol_data/opt/m06hf/geoms/mol2/5la5la-5la5la-.out
 46 49 0 0 0
SMALL
GASTEIGER

@<TRIPOS>ATOM
      1 C          -2.6814   -2.5756    0.2565 C.ar    1  LIG1        0.0180
      2 C          -1.3248   -2.6849    0.2608 C.ar    1  LIG1        0.1277
      3 C          -0.6450   -1.4218    0.1801 C.ar    1  LIG1       -0.0045
      4 C          -1.5146   -0.3732    0.1156 C.ar    1  LIG1        0.0330
      5 S          -3.1658   -0.9182    0.1518 S.2     1  LIG1       -0.0923
      6 H          -3.4267   -3.3501    0.3084 H       1  LIG1        0.0730
      7 O          -0.5899   -3.8214    0.3293 O.3     1  LIG1       -0.4946
      8 C          -1.3284   -5.0240    0.3906 C.3     1  LIG1        0.0788
      9 H          -0.6016   -5.8304    0.4353 H       1  LIG1        0.0660
     10 H          -1.9571   -5.0391    1.2857 H       1  LIG1        0.0660
     11 H          -1.9525   -5.1325   -0.5008 H       1  LIG1        0.0660
     12 H           0.4281   -1.3258    0.1724 H       1  LIG1        0.0666
     13 C          -1.2011    1.0493    0.0206 C.ar    1  LIG1        0.0682
     14 C           0.0406    1.6222   -0.0735 C.ar    1  LIG1        0.1359
     15 C           0.0137    3.0525   -0.1552 C.ar    1  LIG1       -0.0039
     16 C          -1.2622    3.5448   -0.1216 C.ar    1  LIG1        0.0336
     17 S          -2.4301    2.2727    0.0091 S.2     1  LIG1       -0.0833
     18 O           1.1589    0.8565   -0.0805 O.3     1  LIG1       -0.4939
     19 C           2.3953    1.5251   -0.2610 C.3     1  LIG1        0.0788
     20 H           3.1533    0.7469   -0.2816 H       1  LIG1        0.0660
     21 H           2.3998    2.0730   -1.2059 H       1  LIG1        0.0660
     22 H           2.5877    2.2080    0.5693 H       1  LIG1        0.0660
     23 H           0.8759    3.6933   -0.2345 H       1  LIG1        0.0666
     24 C          -1.6782    4.9404   -0.1839 C.ar    1  LIG1        0.0682
     25 C          -0.8700    6.0464   -0.2687 C.ar    1  LIG1        0.1359
     26 C          -1.5902    7.2840   -0.3149 C.ar    1  LIG1       -0.0039
     27 C          -2.9423    7.0922   -0.2590 C.ar    1  LIG1        0.0336
     28 S          -3.3448    5.4149   -0.1408 S.2     1  LIG1       -0.0833
     29 O           0.4803    5.9218   -0.3079 O.3     1  LIG1       -0.4939
     30 C           1.2312    7.1226   -0.3670 C.3     1  LIG1        0.0788
     31 H           2.2756    6.8235   -0.3721 H       1  LIG1        0.0660
     32 H           0.9999    7.6737   -1.2814 H       1  LIG1        0.0660
     33 H           1.0272    7.7440    0.5077 H       1  LIG1        0.0660
     34 H          -1.1523    8.2661   -0.3890 H       1  LIG1        0.0666
     35 C          -3.9829    8.1152   -0.2782 C.ar    1  LIG1        0.0676
     36 C          -3.8300    9.4502   -0.0030 C.ar    1  LIG1        0.1353
     37 C          -5.0600   10.1892   -0.0836 C.ar    1  LIG1       -0.0123
     38 C          -6.1062    9.3886   -0.4201 C.ar    1  LIG1       -0.0202
     39 S          -5.6338    7.7571   -0.6577 S.2     1  LIG1       -0.0924
     40 H          -7.1364    9.6759   -0.5512 H       1  LIG1        0.0695
     41 O          -2.6132    9.9641    0.3056 O.3     1  LIG1       -0.4939
     42 C          -2.5848   11.2967    0.7888 C.3     1  LIG1        0.0788
     43 H          -1.5511   11.4950    1.0587 H       1  LIG1        0.0660
     44 H          -2.9019   11.9951    0.0113 H       1  LIG1        0.0660
     45 H          -3.2233   11.3980    1.6689 H       1  LIG1        0.0660
     46 H          -5.1544   11.2479    0.1010 H       1  LIG1        0.0660
@<TRIPOS>BOND
     1    32    30    1
     2    21    19    1
     3    39    38   ar
     4    39    35   ar
     5    40    38    1
     6    11     8    1
     7    38    37   ar
     8    34    26    1
     9    31    30    1
    10    30    29    1
    11    30    33    1
    12    26    25   ar
    13    26    27   ar
    14    29    25    1
    15    20    19    1
    16    35    27    1
    17    35    36   ar
    18    25    24   ar
    19    19    18    1
    20    19    22    1
    21    27    28   ar
    22    23    15    1
    23    24    28   ar
    24    24    16    1
    25    15    16   ar
    26    15    14   ar
    27    16    17   ar
    28    37    36   ar
    29    37    46    1
    30    18    14    1
    31    14    13   ar
    32    36    41    1
    33    17    13   ar
    34    44    42    1
    35    13     4    1
    36     4     5   ar
    37     4     3   ar
    38     5     1   ar
    39    12     3    1
    40     3     2   ar
    41     1     2   ar
    42     1     6    1
    43     2     7    1
    44    41    42    1
    45     7     8    1
    46     8     9    1
    47     8    10    1
    48    42    43    1
    49    42    45    1
