@<TRIPOS>MOLECULE
mol_data/opt/m06hf/geoms/mol2/5la5la5la5la-.out
 46 49 0 0 0
SMALL
GASTEIGER

@<TRIPOS>ATOM
      1 C          -2.6968   -2.5727    0.2379 C.ar    1  LIG1        0.0180
      2 C          -1.3419   -2.6825    0.3061 C.ar    1  LIG1        0.1277
      3 C          -0.6581   -1.4205    0.2464 C.ar    1  LIG1       -0.0045
      4 C          -1.5230   -0.3721    0.1327 C.ar    1  LIG1        0.0330
      5 S          -3.1745   -0.9160    0.0968 S.2     1  LIG1       -0.0923
      6 H          -3.4443   -3.3465    0.2617 H       1  LIG1        0.0730
      7 O          -0.6119   -3.8187    0.4182 O.3     1  LIG1       -0.4946
      8 C          -1.3534   -5.0205    0.4552 C.3     1  LIG1        0.0788
      9 H          -0.6301   -5.8267    0.5402 H       1  LIG1        0.0660
     10 H          -2.0230   -5.0279    1.3202 H       1  LIG1        0.0660
     11 H          -1.9355   -5.1362   -0.4633 H       1  LIG1        0.0660
     12 H           0.4143   -1.3249    0.2878 H       1  LIG1        0.0666
     13 C          -1.2043    1.0495    0.0405 C.ar    1  LIG1        0.0682
     14 C           0.0409    1.6211   -0.0005 C.ar    1  LIG1        0.1359
     15 C           0.0189    3.0507   -0.0954 C.ar    1  LIG1       -0.0039
     16 C          -1.2568    3.5437   -0.1256 C.ar    1  LIG1        0.0336
     17 S          -2.4304    2.2732   -0.0387 S.2     1  LIG1       -0.0833
     18 O           1.1577    0.8549    0.0511 O.3     1  LIG1       -0.4939
     19 C           2.4017    1.5215   -0.0771 C.3     1  LIG1        0.0788
     20 H           3.1592    0.7429   -0.0559 H       1  LIG1        0.0660
     21 H           2.4508    2.0616   -1.0252 H       1  LIG1        0.0660
     22 H           2.5557    2.2112    0.7556 H       1  LIG1        0.0660
     23 H           0.8843    3.6904   -0.1399 H       1  LIG1        0.0666
     24 C          -1.6683    4.9388   -0.2190 C.ar    1  LIG1        0.0682
     25 C          -0.8562    6.0438   -0.2755 C.ar    1  LIG1        0.1359
     26 C          -1.5726    7.2813   -0.3657 C.ar    1  LIG1       -0.0039
     27 C          -2.9259    7.0904   -0.3711 C.ar    1  LIG1        0.0336
     28 S          -3.3347    5.4143   -0.2576 S.2     1  LIG1       -0.0833
     29 O           0.4944    5.9183   -0.2506 O.3     1  LIG1       -0.4939
     30 C           1.2481    7.1184   -0.2849 C.3     1  LIG1        0.0788
     31 H           2.2914    6.8188   -0.2387 H       1  LIG1        0.0660
     32 H           1.0601    7.6617   -1.2137 H       1  LIG1        0.0660
     33 H           1.0040    7.7472    0.5741 H       1  LIG1        0.0660
     34 H          -1.1309    8.2625   -0.4277 H       1  LIG1        0.0666
     35 C          -3.9637    8.1136   -0.4476 C.ar    1  LIG1        0.0676
     36 C          -3.8228    9.4508   -0.1769 C.ar    1  LIG1        0.1353
     37 C          -5.0471   10.1896   -0.3210 C.ar    1  LIG1       -0.0123
     38 C          -6.0771    9.3865   -0.6991 C.ar    1  LIG1       -0.0202
     39 S          -5.5954    7.7529   -0.9005 S.2     1  LIG1       -0.0924
     40 H          -7.0999    9.6731   -0.8805 H       1  LIG1        0.0695
     41 O          -2.6212    9.9669    0.1837 O.3     1  LIG1       -0.4939
     42 C          -2.6144   11.3035    0.6564 C.3     1  LIG1        0.0788
     43 H          -1.5942   11.5037    0.9725 H       1  LIG1        0.0660
     44 H          -2.8945   11.9954   -0.1408 H       1  LIG1        0.0660
     45 H          -3.2931   11.4125    1.5051 H       1  LIG1        0.0660
     46 H          -5.1492   11.2499   -0.1500 H       1  LIG1        0.0660
@<TRIPOS>BOND
     1    32    30    1
     2    21    19    1
     3    39    38   ar
     4    39    35   ar
     5    40    38    1
     6    38    37   ar
     7    11     8    1
     8    35    27    1
     9    35    36   ar
    10    34    26    1
    11    27    26   ar
    12    27    28   ar
    13    26    25   ar
    14    37    36   ar
    15    37    46    1
    16    30    29    1
    17    30    31    1
    18    30    33    1
    19    25    29    1
    20    25    24   ar
    21    28    24   ar
    22    24    16    1
    23    36    41    1
    24    44    42    1
    25    23    15    1
    26    16    15   ar
    27    16    17   ar
    28    15    14   ar
    29    19    20    1
    30    19    18    1
    31    19    22    1
    32    17    13   ar
    33    14    13   ar
    34    14    18    1
    35    13     4    1
    36     5     4   ar
    37     5     1   ar
    38     4     3   ar
    39    41    42    1
    40     1     6    1
    41     1     2   ar
    42     3    12    1
    43     3     2   ar
    44     2     7    1
    45     7     8    1
    46     8     9    1
    47     8    10    1
    48    42    43    1
    49    42    45    1
