@<TRIPOS>MOLECULE
mol_data/opt/m06hf/geoms/mol2/5la5la.out
 24 25 0 0 0
SMALL
GASTEIGER

@<TRIPOS>ATOM
      1 C          -2.6056   -2.0448   -0.0819 C.ar    1  LIG1        0.0180
      2 C          -1.2530   -2.1336   -0.2055 C.ar    1  LIG1        0.1277
      3 C          -0.5901   -0.8587   -0.1837 C.ar    1  LIG1       -0.0045
      4 C          -1.4682    0.1729   -0.0396 C.ar    1  LIG1        0.0330
      5 S          -3.1053   -0.3961    0.0738 S.2     1  LIG1       -0.0923
      6 H          -3.3382   -2.8330   -0.0688 H       1  LIG1        0.0730
      7 O          -0.5067   -3.2555   -0.3404 O.3     1  LIG1       -0.4946
      8 C          -1.2243   -4.4726   -0.3694 C.3     1  LIG1        0.0788
      9 H          -0.4856   -5.2602   -0.4911 H       1  LIG1        0.0660
     10 H          -1.7708   -4.6149    0.5668 H       1  LIG1        0.0660
     11 H          -1.9228   -4.4830   -1.2108 H       1  LIG1        0.0660
     12 H           0.4771   -0.7425   -0.2742 H       1  LIG1        0.0666
     13 C          -1.1665    1.6028    0.0288 C.ar    1  LIG1        0.0676
     14 C           0.0712    2.1817    0.1366 C.ar    1  LIG1        0.1353
     15 C           0.0245    3.6175    0.1991 C.ar    1  LIG1       -0.0123
     16 C          -1.2509    4.0823    0.1358 C.ar    1  LIG1       -0.0202
     17 S          -2.4016    2.8169   -0.0031 S.2     1  LIG1       -0.0924
     18 H          -1.5768    5.1090    0.1600 H       1  LIG1        0.0695
     19 O           1.1940    1.4235    0.1739 O.3     1  LIG1       -0.4939
     20 C           2.4202    2.0970    0.3988 C.3     1  LIG1        0.0788
     21 H           3.1823    1.3240    0.4451 H       1  LIG1        0.0660
     22 H           2.6396    2.7815   -0.4239 H       1  LIG1        0.0660
     23 H           2.3894    2.6432    1.3446 H       1  LIG1        0.0660
     24 H           0.8889    4.2573    0.2856 H       1  LIG1        0.0660
@<TRIPOS>BOND
     1    11     8    1
     2     9     8    1
     3    22    20    1
     4     8     7    1
     5     8    10    1
     6     7     2    1
     7    12     3    1
     8     2     3   ar
     9     2     1   ar
    10     3     4   ar
    11     1     6    1
    12     1     5   ar
    13     4    13    1
    14     4     5   ar
    15    17    13   ar
    16    17    16   ar
    17    13    14   ar
    18    16    18    1
    19    16    15   ar
    20    14    19    1
    21    14    15   ar
    22    19    20    1
    23    15    24    1
    24    20    21    1
    25    20    23    1
