@<TRIPOS>MOLECULE
mol_data/opt/m06hf/geoms/mol2/5ld.out
 14 14 0 0 0
SMALL
GASTEIGER

@<TRIPOS>ATOM
      1 C          -2.2113   -1.6297    0.0002 C.ar    1  LIG1        0.0187
      2 C          -0.8509   -1.6796   -0.0003 C.ar    1  LIG1        0.1444
      3 C          -0.2590   -0.3635   -0.0002 C.ar    1  LIG1        0.1003
      4 C          -1.1901    0.6295    0.0003 C.ar    1  LIG1       -0.0033
      5 S          -2.7815    0.0016    0.0005 S.2     1  LIG1       -0.1000
      6 H          -2.9123   -2.4463    0.0002 H       1  LIG1        0.0730
      7 H          -1.0058    1.6912    0.0005 H       1  LIG1        0.0707
      8 O          -0.0474   -2.7567   -0.0007 O.3     1  LIG1       -0.4933
      9 C          -0.6960   -4.0171   -0.0008 C.3     1  LIG1        0.0789
     10 H           0.0934   -4.7623   -0.0011 H       1  LIG1        0.0660
     11 H          -1.3125   -4.1231    0.8952 H       1  LIG1        0.0660
     12 H          -1.3130   -4.1228   -0.8964 H       1  LIG1        0.0660
     13 N           2.2951    0.0395   -0.0008 N.1     1  LIG1       -0.1907
     14 C           1.1626   -0.1429   -0.0005 C.1     1  LIG1        0.1034
@<TRIPOS>BOND
     1    12     9    1
     2    10     9    1
     3    13    14    3
     4     9     8    1
     5     9    11    1
     6     8     2    1
     7    14     3    1
     8     2     3   ar
     9     2     1   ar
    10     3     4   ar
    11     1     6    1
    12     1     5   ar
    13     4     5   ar
    14     4     7    1
