@<TRIPOS>MOLECULE
mol_data/opt/m06hf/geoms/mol2/5le.out
 15 15 0 0 0
SMALL
GASTEIGER

@<TRIPOS>ATOM
      1 C          -2.2114   -1.6383    0.0002 C.ar    1  LIG1        0.0186
      2 C          -0.8509   -1.6708   -0.0003 C.ar    1  LIG1        0.1424
      3 C          -0.2602   -0.3495   -0.0003 C.ar    1  LIG1        0.0732
      4 C          -1.2097    0.6268    0.0003 C.ar    1  LIG1       -0.0053
      5 S          -2.8006   -0.0145    0.0008 S.2     1  LIG1       -0.1001
      6 H          -2.9019   -2.4640    0.0003 H       1  LIG1        0.0730
      7 H          -1.0386    1.6906    0.0004 H       1  LIG1        0.0707
      8 O          -0.0430   -2.7491   -0.0008 O.3     1  LIG1       -0.4934
      9 C          -0.6938   -4.0055   -0.0008 C.3     1  LIG1        0.0789
     10 H           0.0922   -4.7550   -0.0012 H       1  LIG1        0.0660
     11 H          -1.3122   -4.1116    0.8948 H       1  LIG1        0.0660
     12 H          -1.3129   -4.1113   -0.8959 H       1  LIG1        0.0660
     13 C           1.1565   -0.1175   -0.0008 C.1     1  LIG1       -0.0655
     14 C           2.3410    0.0826   -0.0012 C.1     1  LIG1       -0.1138
     15 H           3.3918    0.2582   -0.0016 H       1  LIG1        0.1232
@<TRIPOS>BOND
     1    12     9    1
     2    15    14    1
     3    10     9    1
     4    14    13    3
     5     8     9    1
     6     8     2    1
     7     9    11    1
     8    13     3    1
     9     2     3   ar
    10     2     1   ar
    11     3     4   ar
    12     1     6    1
    13     1     5   ar
    14     4     7    1
    15     4     5   ar
