@<TRIPOS>MOLECULE
mol_data/opt/m06hf/geoms/mol2/5lf.out
 14 14 0 0 0
SMALL
GASTEIGER

@<TRIPOS>ATOM
      1 C          -2.2144   -1.6235    0.0001 C.ar    1  LIG1        0.0211
      2 C          -0.8570   -1.6648   -0.0002 C.ar    1  LIG1        0.1683
      3 C          -0.2636   -0.3430   -0.0001 C.ar    1  LIG1        0.1656
      4 C          -1.1922    0.6416    0.0003 C.ar    1  LIG1        0.0209
      5 S          -2.8018    0.0058    0.0005 S.2     1  LIG1       -0.0976
      6 H          -2.9069   -2.4473    0.0001 H       1  LIG1        0.0731
      7 H          -1.0230    1.7062    0.0005 H       1  LIG1        0.0731
      8 O          -0.0388   -2.7363   -0.0006 O.3     1  LIG1       -0.4909
      9 C          -0.6794   -3.9971   -0.0007 C.3     1  LIG1        0.0790
     10 H           0.1130   -4.7400   -0.0011 H       1  LIG1        0.0660
     11 H          -1.2977   -4.1093    0.8945 H       1  LIG1        0.0660
     12 H          -1.2981   -4.1089   -0.8958 H       1  LIG1        0.0660
     13 O           1.0889   -0.2358   -0.0004 O.3     1  LIG1       -0.5029
     14 H           1.3510    0.6907   -0.0004 H       1  LIG1        0.2923
@<TRIPOS>BOND
     1    12     9    1
     2    10     9    1
     3     9     8    1
     4     9    11    1
     5     8     2    1
     6    13    14    1
     7    13     3    1
     8     2     3   ar
     9     2     1   ar
    10     3     4   ar
    11     1     6    1
    12     1     5   ar
    13     4     7    1
    14     4     5   ar
