@<TRIPOS>MOLECULE
mol_data/opt/m06hf/geoms/mol2/5lg.out
 14 14 0 0 0
SMALL
GASTEIGER

@<TRIPOS>ATOM
      1 C          -2.2571   -1.6420    0.0002 C.ar    1  LIG1        0.0185
      2 C          -0.8979   -1.6656   -0.0002 C.ar    1  LIG1        0.1402
      3 C          -0.3085   -0.3476   -0.0002 C.ar    1  LIG1        0.0535
      4 C          -1.2508    0.6251    0.0003 C.ar    1  LIG1       -0.0075
      5 S          -2.8527   -0.0211    0.0006 S.2     1  LIG1       -0.1002
      6 H          -2.9412   -2.4731    0.0002 H       1  LIG1        0.0730
      7 H          -1.0981    1.6920    0.0004 H       1  LIG1        0.0705
      8 O          -0.0713   -2.7332   -0.0007 O.3     1  LIG1       -0.4935
      9 C          -0.6975   -4.0025   -0.0007 C.3     1  LIG1        0.0789
     10 H           0.1025   -4.7370   -0.0011 H       1  LIG1        0.0660
     11 H          -1.3133   -4.1190    0.8947 H       1  LIG1        0.0660
     12 H          -1.3138   -4.1186   -0.8958 H       1  LIG1        0.0660
     13 S           1.4558   -0.2047   -0.0007 S.3     1  LIG1       -0.1386
     14 H           1.4720    1.1320   -0.0004 H       1  LIG1        0.1072
@<TRIPOS>BOND
     1    12     9    1
     2    10     9    1
     3     9     8    1
     4     9    11    1
     5     8     2    1
     6    13    14    1
     7    13     3    1
     8     2     3   ar
     9     2     1   ar
    10     3     4   ar
    11     1     6    1
    12     1     5   ar
    13     4     7    1
    14     4     5   ar
