@<TRIPOS>MOLECULE
mol_data/opt/m06hf/geoms/mol2/5lg5lg-5lg-5lg-.out
 50 53 0 0 0
SMALL
GASTEIGER

@<TRIPOS>ATOM
      1 C          -1.4685   -2.1860    0.5443 C.ar    1  LIG1        0.0191
      2 C          -0.1399   -1.9810    0.3413 C.ar    1  LIG1        0.1408
      3 C           0.1965   -0.6011    0.0700 C.ar    1  LIG1        0.0619
      4 C          -0.9099    0.1985    0.0861 C.ar    1  LIG1        0.0462
      5 S          -2.3587   -0.7142    0.3981 S.2     1  LIG1       -0.0912
      6 H          -1.9767   -3.1083    0.7677 H       1  LIG1        0.0731
      7 O           0.8597   -2.8849    0.3806 O.3     1  LIG1       -0.4935
      8 C           0.4887   -4.2097    0.7139 C.3     1  LIG1        0.0789
      9 H           1.4062   -4.7904    0.7146 H       1  LIG1        0.0660
     10 H           0.0267   -4.2340    1.7043 H       1  LIG1        0.0660
     11 H          -0.2044   -4.6077   -0.0319 H       1  LIG1        0.0660
     12 S           1.8957   -0.1742   -0.1517 S.3     1  LIG1       -0.1380
     13 H           1.6617    0.9426   -0.8526 H       1  LIG1        0.1072
     14 C          -1.0154    1.6466   -0.1183 C.ar    1  LIG1        0.0704
     15 C          -0.4509    2.4029   -1.1035 C.ar    1  LIG1        0.1491
     16 C          -0.7756    3.8008   -1.0186 C.ar    1  LIG1        0.0626
     17 C          -1.6003    4.0692    0.0388 C.ar    1  LIG1        0.0468
     18 S          -1.9634    2.6288    0.9455 S.2     1  LIG1       -0.0822
     19 O           0.3695    1.9369   -2.0908 O.3     1  LIG1       -0.4928
     20 C          -0.2761    1.0921   -3.0568 C.3     1  LIG1        0.0789
     21 H          -0.6492    0.1903   -2.5705 H       1  LIG1        0.0660
     22 H          -1.0930    1.6411   -3.5265 H       1  LIG1        0.0660
     23 H           0.4874    0.8396   -3.7875 H       1  LIG1        0.0660
     24 S          -0.1408    4.9696   -2.1845 S.3     1  LIG1       -0.1380
     25 H           0.6741    4.0699   -2.7459 H       1  LIG1        0.1072
     26 C          -2.1818    5.3489    0.4385 C.ar    1  LIG1        0.0704
     27 C          -2.5425    5.7065    1.7066 C.ar    1  LIG1        0.1491
     28 C          -3.0943    7.0252    1.7990 C.ar    1  LIG1        0.0626
     29 C          -3.1634    7.6404    0.5784 C.ar    1  LIG1        0.0468
     30 S          -2.5331    6.6190   -0.6821 S.2     1  LIG1       -0.0822
     31 O          -2.4161    4.8942    2.7914 O.3     1  LIG1       -0.4928
     32 C          -1.1373    4.9886    3.4359 C.3     1  LIG1        0.0789
     33 H          -0.3489    4.7208    2.7313 H       1  LIG1        0.0660
     34 H          -0.9889    6.0026    3.8088 H       1  LIG1        0.0660
     35 H          -1.1647    4.2810    4.2599 H       1  LIG1        0.0660
     36 S          -3.5802    7.6258    3.3922 S.3     1  LIG1       -0.1380
     37 H          -3.4335    8.9201    3.0880 H       1  LIG1        0.1072
     38 C          -3.6972    8.9567    0.2245 C.ar    1  LIG1        0.0698
     39 C          -3.2757    9.7347   -0.8164 C.ar    1  LIG1        0.1484
     40 C          -4.0392   10.9395   -0.9872 C.ar    1  LIG1        0.0542
     41 C          -5.0326   11.0385   -0.0685 C.ar    1  LIG1       -0.0069
     42 S          -5.0644    9.6885    1.0064 S.2     1  LIG1       -0.0912
     43 H          -5.7560   11.8294    0.0462 H       1  LIG1        0.0706
     44 O          -2.2591    9.4114   -1.6609 O.3     1  LIG1       -0.4928
     45 C          -0.9559    9.7233   -1.1507 C.3     1  LIG1        0.0789
     46 H          -0.2517    9.3993   -1.9119 H       1  LIG1        0.0660
     47 H          -0.8734   10.7985   -0.9859 H       1  LIG1        0.0660
     48 H          -0.7821    9.1797   -0.2209 H       1  LIG1        0.0660
     49 S          -3.6123   12.0382   -2.3079 S.3     1  LIG1       -0.1386
     50 H          -4.4706   12.9977   -1.9505 H       1  LIG1        0.1072
@<TRIPOS>BOND
     1    23    20    1
     2    22    20    1
     3    20    21    1
     4    20    19    1
     5    25    24    1
     6    49    50    1
     7    49    40    1
     8    24    16    1
     9    19    15    1
    10    46    45    1
    11    44    45    1
    12    44    39    1
    13    45    47    1
    14    45    48    1
    15    15    16   ar
    16    15    14   ar
    17    16    17   ar
    18    40    39   ar
    19    40    41   ar
    20    13    12    1
    21    39    38   ar
    22    30    26   ar
    23    30    29   ar
    24    12     3    1
    25    14     4    1
    26    14    18   ar
    27    41    43    1
    28    41    42   ar
    29    11     8    1
    30    17    26    1
    31    17    18   ar
    32     3     4   ar
    33     3     2   ar
    34     4     5   ar
    35    38    29    1
    36    38    42   ar
    37     2     7    1
    38     2     1   ar
    39     7     8    1
    40     5     1   ar
    41    26    27   ar
    42     1     6    1
    43    29    28   ar
    44     8     9    1
    45     8    10    1
    46    27    28   ar
    47    27    31    1
    48    28    36    1
    49    33    32    1
    50    31    32    1
    51    37    36    1
    52    32    34    1
    53    32    35    1
