@<TRIPOS>MOLECULE
mol_data/opt/m06hf/geoms/mol2/5lg5lg-5lg-.out
 38 40 0 0 0
SMALL
GASTEIGER

@<TRIPOS>ATOM
      1 C          -1.7471   -1.8728    1.3142 C.ar    1  LIG1        0.0191
      2 C          -1.1810   -2.1029    0.1004 C.ar    1  LIG1        0.1408
      3 C          -0.7851   -0.8965   -0.5938 C.ar    1  LIG1        0.0619
      4 C          -1.0821    0.2191    0.1351 C.ar    1  LIG1        0.0462
      5 S          -1.8055   -0.1836    1.6662 S.2     1  LIG1       -0.0912
      6 H          -2.1276   -2.5891    2.0219 H       1  LIG1        0.0731
      7 O          -0.9733   -3.2856   -0.5124 O.3     1  LIG1       -0.4935
      8 C          -1.4284   -4.4339    0.1781 C.3     1  LIG1        0.0789
      9 H          -1.1929   -5.2830   -0.4566 H       1  LIG1        0.0660
     10 H          -0.9111   -4.5291    1.1364 H       1  LIG1        0.0660
     11 H          -2.5078   -4.3732    0.3402 H       1  LIG1        0.0660
     12 S          -0.0951   -1.0472   -2.2097 S.3     1  LIG1       -0.1380
     13 H           0.5462    0.1276   -2.1879 H       1  LIG1        0.1072
     14 C          -0.8855    1.6321   -0.2026 C.ar    1  LIG1        0.0704
     15 C           0.2306    2.2321   -0.7064 C.ar    1  LIG1        0.1491
     16 C           0.1071    3.6537   -0.8899 C.ar    1  LIG1        0.0626
     17 C          -1.1296    4.1027   -0.5175 C.ar    1  LIG1        0.0468
     18 S          -2.1295    2.8046    0.0702 S.2     1  LIG1       -0.0822
     19 O           1.3768    1.5808   -1.0479 O.3     1  LIG1       -0.4928
     20 C           2.2098    1.2276    0.0651 C.3     1  LIG1        0.0789
     21 H           3.0704    0.7163   -0.3571 H       1  LIG1        0.0660
     22 H           2.5213    2.1350    0.5835 H       1  LIG1        0.0660
     23 H           1.6641    0.5644    0.7380 H       1  LIG1        0.0660
     24 S           1.4780    4.5274   -1.5763 S.3     1  LIG1       -0.1380
     25 H           1.1652    5.7169   -1.0418 H       1  LIG1        0.1072
     26 C          -1.6755    5.4616   -0.5637 C.ar    1  LIG1        0.0698
     27 C          -1.0904    6.6193   -0.1371 C.ar    1  LIG1        0.1484
     28 C          -1.9141    7.7821   -0.3151 C.ar    1  LIG1        0.0542
     29 C          -3.1120    7.4699   -0.8725 C.ar    1  LIG1       -0.0069
     30 S          -3.2568    5.7822   -1.1925 S.2     1  LIG1       -0.0912
     31 H          -3.9223    8.1368   -1.1196 H       1  LIG1        0.0706
     32 O           0.1553    6.7284    0.4070 O.3     1  LIG1       -0.4928
     33 C           0.2759    6.1828    1.7288 C.3     1  LIG1        0.0789
     34 H          -0.4191    6.6938    2.3955 H       1  LIG1        0.0660
     35 H           0.0706    5.1114    1.7085 H       1  LIG1        0.0660
     36 H           1.3026    6.3674    2.0333 H       1  LIG1        0.0660
     37 S          -1.2810    9.3544    0.1962 S.3     1  LIG1       -0.1386
     38 H          -2.4311   10.0099    0.0186 H       1  LIG1        0.1072
@<TRIPOS>BOND
     1    12    13    1
     2    12     3    1
     3    24    25    1
     4    24    16    1
     5    30    29   ar
     6    30    26   ar
     7    31    29    1
     8    19    15    1
     9    19    20    1
    10    16    15   ar
    11    16    17   ar
    12    29    28   ar
    13    15    14   ar
    14     3     2   ar
    15     3     4   ar
    16    26    17    1
    17    26    27   ar
    18    17    18   ar
    19     7     2    1
    20     7     8    1
    21     9     8    1
    22    21    20    1
    23    28    27   ar
    24    28    37    1
    25    14    18   ar
    26    14     4    1
    27    27    32    1
    28    38    37    1
    29    20    22    1
    30    20    23    1
    31     2     1   ar
    32     4     5   ar
    33     8    11    1
    34     8    10    1
    35    32    33    1
    36     1     5   ar
    37     1     6    1
    38    35    33    1
    39    33    36    1
    40    33    34    1
