@<TRIPOS>MOLECULE
mol_data/opt/m06hf/geoms/mol2/5lg5lg5lg5lg.out
 50 53 0 0 0
SMALL
GASTEIGER

@<TRIPOS>ATOM
      1 C          -1.5124   -2.1801   -1.1715 C.ar    1  LIG1        0.0191
      2 C          -0.1943   -2.0749   -0.8558 C.ar    1  LIG1        0.1408
      3 C           0.1786   -0.7689   -0.3576 C.ar    1  LIG1        0.0619
      4 C          -0.8928    0.0769   -0.3215 C.ar    1  LIG1        0.0462
      5 S          -2.3518   -0.7054   -0.8581 S.2     1  LIG1       -0.0912
      6 H          -2.0408   -3.0334   -1.5612 H       1  LIG1        0.0731
      7 O           0.7673   -3.0132   -0.9680 O.3     1  LIG1       -0.4935
      8 C           0.3545   -4.2727   -1.4638 C.3     1  LIG1        0.0789
      9 H           1.2421   -4.8986   -1.4792 H       1  LIG1        0.0660
     10 H          -0.4004   -4.7091   -0.8045 H       1  LIG1        0.0660
     11 H          -0.0490   -4.1680   -2.4741 H       1  LIG1        0.0660
     12 S           1.8724   -0.4614    0.0311 S.3     1  LIG1       -0.1380
     13 H           1.6331    0.5208    0.9123 H       1  LIG1        0.1072
     14 C          -0.9519    1.4864    0.0762 C.ar    1  LIG1        0.0704
     15 C          -0.4044    2.0798    1.1767 C.ar    1  LIG1        0.1491
     16 C          -0.6642    3.4878    1.2669 C.ar    1  LIG1        0.0626
     17 C          -1.4307    3.9346    0.2270 C.ar    1  LIG1        0.0468
     18 S          -1.8009    2.6485   -0.8849 S.2     1  LIG1       -0.0822
     19 O           0.3376    1.4573    2.1366 O.3     1  LIG1       -0.4928
     20 C          -0.4058    0.5636    2.9783 C.3     1  LIG1        0.0789
     21 H           0.3003    0.1956    3.7174 H       1  LIG1        0.0660
     22 H          -1.2143    1.1131    3.4618 H       1  LIG1        0.0660
     23 H          -0.8025   -0.2620    2.3860 H       1  LIG1        0.0660
     24 S           0.0252    4.3595    2.6404 S.3     1  LIG1       -0.1380
     25 H          -0.3464    5.5752    2.2231 H       1  LIG1        0.1072
     26 C          -1.9701    5.2735   -0.0231 C.ar    1  LIG1        0.0704
     27 C          -2.0458    5.8927   -1.2361 C.ar    1  LIG1        0.1491
     28 C          -2.6960    7.1771   -1.2042 C.ar    1  LIG1        0.0626
     29 C          -3.1270    7.4909    0.0536 C.ar    1  LIG1        0.0468
     30 S          -2.7272    6.2418    1.2009 S.2     1  LIG1       -0.0822
     31 O          -1.6044    5.3426   -2.3963 O.3     1  LIG1       -0.4928
     32 C          -0.2149    5.5775   -2.6593 C.3     1  LIG1        0.0789
     33 H          -0.0033    5.0885   -3.6060 H       1  LIG1        0.0660
     34 H          -0.0332    6.6502   -2.7372 H       1  LIG1        0.0660
     35 H           0.3904    5.1415   -1.8629 H       1  LIG1        0.0660
     36 S          -2.9011    8.0597   -2.7194 S.3     1  LIG1       -0.1380
     37 H          -2.8980    9.2778   -2.1619 H       1  LIG1        0.1072
     38 C          -3.8531    8.6765    0.5138 C.ar    1  LIG1        0.0698
     39 C          -3.5850    9.9872    0.2408 C.ar    1  LIG1        0.1484
     40 C          -4.5000   10.9046    0.8603 C.ar    1  LIG1        0.0542
     41 C          -5.4395   10.2577    1.5969 C.ar    1  LIG1       -0.0069
     42 S          -5.2378    8.5455    1.5450 S.2     1  LIG1       -0.0912
     43 H          -6.2465   10.6877    2.1680 H       1  LIG1        0.0706
     44 O          -2.5683   10.4442   -0.5450 O.3     1  LIG1       -0.4928
     45 C          -1.2607   10.3003    0.0270 C.3     1  LIG1        0.0789
     46 H          -0.5705   10.7227   -0.6984 H       1  LIG1        0.0660
     47 H          -1.2136   10.8532    0.9656 H       1  LIG1        0.0660
     48 H          -1.0414    9.2445    0.1922 H       1  LIG1        0.0660
     49 S          -4.2767   12.6409    0.5957 S.3     1  LIG1       -0.1386
     50 H          -5.2336   13.0148    1.4511 H       1  LIG1        0.1072
@<TRIPOS>BOND
     1    33    32    1
     2    34    32    1
     3    36    37    1
     4    36    28    1
     5    32    31    1
     6    32    35    1
     7    11     8    1
     8    31    27    1
     9     6     1    1
    10     9     8    1
    11     8     7    1
    12     8    10    1
    13    27    28   ar
    14    27    26   ar
    15    28    29   ar
    16     1     5   ar
    17     1     2   ar
    18     7     2    1
    19    18    14   ar
    20    18    17   ar
    21     5     4   ar
    22     2     3   ar
    23    46    45    1
    24    44    45    1
    25    44    39    1
    26     3     4   ar
    27     3    12    1
    28     4    14    1
    29    26    17    1
    30    26    30   ar
    31    45    48    1
    32    45    47    1
    33    12    13    1
    34    29    38    1
    35    29    30   ar
    36    14    15   ar
    37    17    16   ar
    38    39    38   ar
    39    39    40   ar
    40    38    42   ar
    41    49    40    1
    42    49    50    1
    43    40    41   ar
    44    15    16   ar
    45    15    19    1
    46    16    24    1
    47    42    41   ar
    48    41    43    1
    49    19    20    1
    50    25    24    1
    51    23    20    1
    52    20    22    1
    53    20    21    1
