@<TRIPOS>MOLECULE
mol_data/opt/m06hf/geoms/mol2/5lg5lg-5lg-5lg.out
 50 53 0 0 0
SMALL
GASTEIGER

@<TRIPOS>ATOM
      1 C          -0.0032   -1.6940    2.0487 C.ar    1  LIG1        0.0191
      2 C          -0.4646   -2.1299    0.8474 C.ar    1  LIG1        0.1408
      3 C          -0.8216   -1.0607   -0.0590 C.ar    1  LIG1        0.0619
      4 C          -0.6172    0.1652    0.5072 C.ar    1  LIG1        0.0462
      5 S           0.0319    0.0301    2.1173 S.2     1  LIG1       -0.0912
      6 H           0.3205   -2.2780    2.8932 H       1  LIG1        0.0731
      7 O          -0.6367   -3.4000    0.4295 O.3     1  LIG1       -0.4935
      8 C          -0.3446   -4.4118    1.3753 C.3     1  LIG1        0.0789
      9 H          -0.5527   -5.3572    0.8831 H       1  LIG1        0.0660
     10 H           0.7085   -4.3653    1.6649 H       1  LIG1        0.0660
     11 H          -0.9796   -4.2986    2.2576 H       1  LIG1        0.0660
     12 S          -1.4912   -1.4860   -1.6353 S.3     1  LIG1       -0.1380
     13 H          -1.2243   -0.3070   -2.2116 H       1  LIG1        0.1072
     14 C          -0.8745    1.5012   -0.0400 C.ar    1  LIG1        0.0704
     15 C          -0.5525    1.9919   -1.2715 C.ar    1  LIG1        0.1491
     16 C          -0.9030    3.3710   -1.4532 C.ar    1  LIG1        0.0626
     17 C          -1.5069    3.9026   -0.3453 C.ar    1  LIG1        0.0468
     18 S          -1.6195    2.7245    0.9326 S.2     1  LIG1       -0.0822
     19 O           0.0340    1.2895   -2.2810 O.3     1  LIG1       -0.4928
     20 C           1.4137    0.9644   -2.0626 C.3     1  LIG1        0.0789
     21 H           1.7349    0.4254   -2.9494 H       1  LIG1        0.0660
     22 H           1.9869    1.8846   -1.9459 H       1  LIG1        0.0660
     23 H           1.5120    0.3346   -1.1776 H       1  LIG1        0.0660
     24 S          -0.5041    4.1296   -3.0021 S.3     1  LIG1       -0.1380
     25 H          -0.3389    5.3617   -2.5057 H       1  LIG1        0.1072
     26 C          -2.0693    5.2382   -0.1440 C.ar    1  LIG1        0.0704
     27 C          -2.2983    5.8283    1.0662 C.ar    1  LIG1        0.1491
     28 C          -2.9436    7.1111    0.9942 C.ar    1  LIG1        0.0626
     29 C          -3.1989    7.4687   -0.2998 C.ar    1  LIG1        0.0468
     30 S          -2.6475    6.2592   -1.4252 S.2     1  LIG1       -0.0822
     31 O          -2.0013    5.2376    2.2545 O.3     1  LIG1       -0.4928
     32 C          -0.7062    5.5861    2.7624 C.3     1  LIG1        0.0789
     33 H          -0.6135    5.0786    3.7185 H       1  LIG1        0.0660
     34 H           0.0635    5.2383    2.0713 H       1  LIG1        0.0660
     35 H          -0.6431    6.6661    2.8983 H       1  LIG1        0.0660
     36 S          -3.3755    7.9254    2.5001 S.3     1  LIG1       -0.1380
     37 H          -3.3147    9.1717    2.0060 H       1  LIG1        0.1072
     38 C          -3.8407    8.6795   -0.8156 C.ar    1  LIG1        0.0698
     39 C          -3.6049    9.9739   -0.4491 C.ar    1  LIG1        0.1484
     40 C          -4.3937   10.9318   -1.1713 C.ar    1  LIG1        0.0542
     41 C          -5.2084   10.3317   -2.0767 C.ar    1  LIG1       -0.0069
     42 S          -5.0382    8.6163   -2.0643 S.2     1  LIG1       -0.0912
     43 H          -5.9088   10.7985   -2.7502 H       1  LIG1        0.0706
     44 O          -2.7224   10.3809    0.5081 O.3     1  LIG1       -0.4928
     45 C          -1.3421   10.2439    0.1419 C.3     1  LIG1        0.0789
     46 H          -0.7722   10.6336    0.9814 H       1  LIG1        0.0660
     47 H          -1.1054    9.1919   -0.0248 H       1  LIG1        0.0660
     48 H          -1.1463   10.8283   -0.7576 H       1  LIG1        0.0660
     49 S          -4.1944   12.6498   -0.7943 S.3     1  LIG1       -0.1386
     50 H          -4.8953   13.0884   -1.8429 H       1  LIG1        0.1072
@<TRIPOS>BOND
     1    24    25    1
     2    24    16    1
     3    21    20    1
     4    43    41    1
     5    19    20    1
     6    19    15    1
     7    13    12    1
     8    41    42   ar
     9    41    40   ar
    10    42    38   ar
    11    20    22    1
    12    20    23    1
    13    50    49    1
    14    12     3    1
    15    16    15   ar
    16    16    17   ar
    17    30    29   ar
    18    30    26   ar
    19    15    14   ar
    20    40    49    1
    21    40    39   ar
    22    38    39   ar
    23    38    29    1
    24    48    45    1
    25    39    44    1
    26    17    26    1
    27    17    18   ar
    28    29    28   ar
    29    26    27   ar
    30     3     4   ar
    31     3     2   ar
    32    14     4    1
    33    14    18   ar
    34    47    45    1
    35    45    44    1
    36    45    46    1
    37     7     2    1
    38     7     8    1
    39     4     5   ar
    40     2     1   ar
    41     9     8    1
    42    28    27   ar
    43    28    36    1
    44    27    31    1
    45     8    10    1
    46     8    11    1
    47    37    36    1
    48     1     5   ar
    49     1     6    1
    50    34    32    1
    51    31    32    1
    52    32    35    1
    53    32    33    1
