@<TRIPOS>MOLECULE
mol_data/opt/m06hf/geoms/mol2/5lg5lg.out
 26 27 0 0 0
SMALL
GASTEIGER

@<TRIPOS>ATOM
      1 C          -2.0482   -1.8753    0.8455 C.ar    1  LIG1        0.0191
      2 C          -1.0897   -1.9799   -0.1117 C.ar    1  LIG1        0.1408
      3 C          -0.5905   -0.7026   -0.5732 C.ar    1  LIG1        0.0619
      4 C          -1.2098    0.3362    0.0596 C.ar    1  LIG1        0.0462
      5 S          -2.3674   -0.2220    1.2348 S.2     1  LIG1       -0.0912
      6 H          -2.5808   -2.6642    1.3481 H       1  LIG1        0.0731
      7 O          -0.5867   -3.0988   -0.6709 O.3     1  LIG1       -0.4935
      8 C          -1.1564   -4.3200   -0.2384 C.3     1  LIG1        0.0789
      9 H          -0.6572   -5.1035   -0.8005 H       1  LIG1        0.0660
     10 H          -0.9844   -4.4603    0.8321 H       1  LIG1        0.0660
     11 H          -2.2290   -4.3312   -0.4480 H       1  LIG1        0.0660
     12 S           0.6185   -0.6794   -1.8581 S.3     1  LIG1       -0.1380
     13 H           1.1175    0.5244   -1.5477 H       1  LIG1        0.1072
     14 C          -1.0301    1.7779   -0.1364 C.ar    1  LIG1        0.0698
     15 C           0.1353    2.4847   -0.2053 C.ar    1  LIG1        0.1484
     16 C          -0.0548    3.8951   -0.4023 C.ar    1  LIG1        0.0542
     17 C          -1.3702    4.2218   -0.4711 C.ar    1  LIG1       -0.0069
     18 S          -2.3884    2.8381   -0.3099 S.2     1  LIG1       -0.0912
     19 H          -1.8048    5.1986   -0.6100 H       1  LIG1        0.0706
     20 O           1.3933    1.9663   -0.1243 O.3     1  LIG1       -0.4928
     21 C           1.7457    1.4401    1.1635 C.3     1  LIG1        0.0789
     22 H           2.7729    1.0981    1.0726 H       1  LIG1        0.0660
     23 H           1.6697    2.2319    1.9095 H       1  LIG1        0.0660
     24 H           1.0894    0.6072    1.4188 H       1  LIG1        0.0660
     25 S           1.3771    4.9296   -0.5046 S.3     1  LIG1       -0.1386
     26 H           0.6924    6.0757   -0.5827 H       1  LIG1        0.1072
@<TRIPOS>BOND
     1    12    13    1
     2    12     3    1
     3     9     8    1
     4     7     8    1
     5     7     2    1
     6    19    17    1
     7    26    25    1
     8     3     2   ar
     9     3     4   ar
    10    25    16    1
    11    17    16   ar
    12    17    18   ar
    13    11     8    1
    14    16    15   ar
    15    18    14   ar
    16     8    10    1
    17    15    14   ar
    18    15    20    1
    19    14     4    1
    20    20    21    1
    21     2     1   ar
    22     4     5   ar
    23     1     5   ar
    24     1     6    1
    25    22    21    1
    26    21    24    1
    27    21    23    1
