@<TRIPOS>MOLECULE
mol_data/opt/m06hf/geoms/mol2/5lg5lg5lg5lg-.out
 50 53 0 0 0
SMALL
GASTEIGER

@<TRIPOS>ATOM
      1 C          -1.4788   -2.1969   -1.0814 C.ar    1  LIG1        0.0191
      2 C          -0.1697   -2.0860   -0.7317 C.ar    1  LIG1        0.1408
      3 C           0.1892   -0.7724   -0.2433 C.ar    1  LIG1        0.0619
      4 C          -0.8831    0.0731   -0.2489 C.ar    1  LIG1        0.0462
      5 S          -2.3268   -0.7182   -0.8130 S.2     1  LIG1       -0.0912
      6 H          -1.9961   -3.0564   -1.4723 H       1  LIG1        0.0731
      7 O           0.7949   -3.0252   -0.8037 O.3     1  LIG1       -0.4935
      8 C           0.3961   -4.2923   -1.2915 C.3     1  LIG1        0.0789
      9 H           1.2839   -4.9177   -1.2734 H       1  LIG1        0.0660
     10 H          -0.3763   -4.7193   -0.6464 H       1  LIG1        0.0660
     11 H           0.0200   -4.2031   -2.3138 H       1  LIG1        0.0660
     12 S           1.8717   -0.4578    0.1864 S.3     1  LIG1       -0.1380
     13 H           1.6083    0.5374    1.0460 H       1  LIG1        0.1072
     14 C          -0.9535    1.4884    0.1258 C.ar    1  LIG1        0.0704
     15 C          -0.4361    2.0986    1.2316 C.ar    1  LIG1        0.1491
     16 C          -0.6987    3.5077    1.2935 C.ar    1  LIG1        0.0626
     17 C          -1.4369    3.9382    0.2267 C.ar    1  LIG1        0.0468
     18 S          -1.7765    2.6353   -0.8754 S.2     1  LIG1       -0.0822
     19 O           0.2798    1.4912    2.2205 O.3     1  LIG1       -0.4928
     20 C          -0.4858    0.6098    3.0552 C.3     1  LIG1        0.0789
     21 H           0.2002    0.2534    3.8185 H       1  LIG1        0.0660
     22 H          -1.3073    1.1658    3.5082 H       1  LIG1        0.0660
     23 H          -0.8660   -0.2250    2.4648 H       1  LIG1        0.0660
     24 S          -0.0470    4.4005    2.6719 S.3     1  LIG1       -0.1380
     25 H          -0.4076    5.6094    2.2265 H       1  LIG1        0.1072
     26 C          -1.9698    5.2728   -0.0581 C.ar    1  LIG1        0.0704
     27 C          -2.0129    5.8736   -1.2818 C.ar    1  LIG1        0.1491
     28 C          -2.6641    7.1579   -1.2869 C.ar    1  LIG1        0.0626
     29 C          -3.1291    7.4903   -0.0460 C.ar    1  LIG1        0.0468
     30 S          -2.7601    6.2588    1.1303 S.2     1  LIG1       -0.0822
     31 O          -1.5400    5.3065   -2.4213 O.3     1  LIG1       -0.4928
     32 C          -0.1440    5.5384   -2.6501 C.3     1  LIG1        0.0789
     33 H           0.0394    6.6099   -2.7392 H       1  LIG1        0.0660
     34 H           0.4396    5.1149   -1.8311 H       1  LIG1        0.0660
     35 H           0.0933    5.0354   -3.5832 H       1  LIG1        0.0660
     36 S          -2.8284    8.0175   -2.8202 S.3     1  LIG1       -0.1380
     37 H          -2.8409    9.2438   -2.2813 H       1  LIG1        0.1072
     38 C          -3.8677    8.6821    0.3764 C.ar    1  LIG1        0.0698
     39 C          -3.5928    9.9888    0.0911 C.ar    1  LIG1        0.1484
     40 C          -4.5246   10.9146    0.6717 C.ar    1  LIG1        0.0542
     41 C          -5.4834   10.2783    1.3923 C.ar    1  LIG1       -0.0069
     42 S          -5.2798    8.5656    1.3716 S.2     1  LIG1       -0.0912
     43 H          -6.3057   10.7162    1.9348 H       1  LIG1        0.0706
     44 O          -2.5554   10.4346   -0.6738 O.3     1  LIG1       -0.4928
     45 C          -1.2637   10.3004   -0.0645 C.3     1  LIG1        0.0789
     46 H          -0.5542   10.7123   -0.7772 H       1  LIG1        0.0660
     47 H          -1.2422   10.8673    0.8666 H       1  LIG1        0.0660
     48 H          -1.0486    9.2473    0.1225 H       1  LIG1        0.0660
     49 S          -4.2948   12.6469    0.3871 S.3     1  LIG1       -0.1386
     50 H          -5.2746   13.0329    1.2106 H       1  LIG1        0.1072
@<TRIPOS>BOND
     1    35    32    1
     2    36    37    1
     3    36    28    1
     4    33    32    1
     5    32    31    1
     6    32    34    1
     7    31    27    1
     8    11     8    1
     9     6     1    1
    10     8     9    1
    11     8     7    1
    12     8    10    1
    13    28    27   ar
    14    28    29   ar
    15    27    26   ar
    16     1     5   ar
    17     1     2   ar
    18    18    14   ar
    19    18    17   ar
    20     5     4   ar
    21     7     2    1
    22    46    45    1
    23     2     3   ar
    24    44    45    1
    25    44    39    1
    26     4     3   ar
    27     4    14    1
    28     3    12    1
    29    45    48    1
    30    45    47    1
    31    26    17    1
    32    26    30   ar
    33    29    38    1
    34    29    30   ar
    35    39    38   ar
    36    39    40   ar
    37    14    15   ar
    38    12    13    1
    39    17    16   ar
    40    38    42   ar
    41    49    40    1
    42    49    50    1
    43    40    41   ar
    44    15    16   ar
    45    15    19    1
    46    16    24    1
    47    42    41   ar
    48    41    43    1
    49    19    20    1
    50    25    24    1
    51    23    20    1
    52    20    22    1
    53    20    21    1
