@<TRIPOS>MOLECULE
mol_data/opt/m06hf/geoms/mol2/5lg5lg-.out
 26 27 0 0 0
SMALL
GASTEIGER

@<TRIPOS>ATOM
      1 C          -1.9965   -1.8927    0.8881 C.ar    1  LIG1        0.0191
      2 C          -1.0620   -1.9894   -0.0933 C.ar    1  LIG1        0.1408
      3 C          -0.5915   -0.7080   -0.5731 C.ar    1  LIG1        0.0619
      4 C          -1.2073    0.3257    0.0714 C.ar    1  LIG1        0.0462
      5 S          -2.3267   -0.2419    1.2787 S.2     1  LIG1       -0.0912
      6 H          -2.5057   -2.6861    1.4077 H       1  LIG1        0.0731
      7 O          -0.5595   -3.1044   -0.6609 O.3     1  LIG1       -0.4935
      8 C          -1.1019   -4.3307   -0.2085 C.3     1  LIG1        0.0789
      9 H          -0.6075   -5.1104   -0.7803 H       1  LIG1        0.0660
     10 H          -0.9003   -4.4640    0.8577 H       1  LIG1        0.0660
     11 H          -2.1794   -4.3565   -0.3900 H       1  LIG1        0.0660
     12 S           0.5832   -0.6752   -1.8893 S.3     1  LIG1       -0.1380
     13 H           1.0746    0.5362   -1.5971 H       1  LIG1        0.1072
     14 C          -1.0514    1.7687   -0.1353 C.ar    1  LIG1        0.0698
     15 C           0.1026    2.4899   -0.2376 C.ar    1  LIG1        0.1484
     16 C          -0.1106    3.8969   -0.4354 C.ar    1  LIG1        0.0542
     17 C          -1.4315    4.2065   -0.4711 C.ar    1  LIG1       -0.0069
     18 S          -2.4272    2.8107   -0.2776 S.2     1  LIG1       -0.0912
     19 H          -1.8821    5.1770   -0.6027 H       1  LIG1        0.0706
     20 O           1.3689    1.9880   -0.1874 O.3     1  LIG1       -0.4928
     21 C           1.7615    1.4722    1.0929 C.3     1  LIG1        0.0789
     22 H           2.7903    1.1429    0.9767 H       1  LIG1        0.0660
     23 H           1.6948    2.2662    1.8374 H       1  LIG1        0.0660
     24 H           1.1229    0.6320    1.3689 H       1  LIG1        0.0660
     25 S           1.3047    4.9490   -0.5794 S.3     1  LIG1       -0.1386
     26 H           0.6035    6.0859   -0.6445 H       1  LIG1        0.1072
@<TRIPOS>BOND
     1    12    13    1
     2    12     3    1
     3     9     8    1
     4     7     8    1
     5     7     2    1
     6    26    25    1
     7    19    17    1
     8    25    16    1
     9     3     2   ar
    10     3     4   ar
    11    17    16   ar
    12    17    18   ar
    13    16    15   ar
    14    11     8    1
    15    18    14   ar
    16    15    20    1
    17    15    14   ar
    18     8    10    1
    19    20    21    1
    20    14     4    1
    21     2     1   ar
    22     4     5   ar
    23     1     5   ar
    24     1     6    1
    25    22    21    1
    26    21    24    1
    27    21    23    1
