@<TRIPOS>MOLECULE
mol_data/opt/m06hf/geoms/mol2/5lg5lg5lg.out
 38 40 0 0 0
SMALL
GASTEIGER

@<TRIPOS>ATOM
      1 C          -1.8638   -1.7864   -1.4704 C.ar    1  LIG1        0.0191
      2 C          -1.3045   -2.0785   -0.2668 C.ar    1  LIG1        0.1408
      3 C          -0.8759   -0.9110    0.4730 C.ar    1  LIG1        0.0619
      4 C          -1.1422    0.2395   -0.2122 C.ar    1  LIG1        0.0462
      5 S          -1.8761   -0.0840   -1.7571 S.2     1  LIG1       -0.0912
      6 H          -2.2637   -2.4643   -2.2048 H       1  LIG1        0.0731
      7 O          -1.1293   -3.2892    0.2998 O.3     1  LIG1       -0.4935
      8 C          -1.6155   -4.3971   -0.4340 C.3     1  LIG1        0.0789
      9 H          -1.4034   -5.2762    0.1673 H       1  LIG1        0.0660
     10 H          -2.6928   -4.3008   -0.5927 H       1  LIG1        0.0660
     11 H          -1.1008   -4.4695   -1.3957 H       1  LIG1        0.0660
     12 S          -0.1907   -1.1426    2.0813 S.3     1  LIG1       -0.1380
     13 H           0.4826    0.0142    2.1041 H       1  LIG1        0.1072
     14 C          -0.9071    1.6326    0.1795 C.ar    1  LIG1        0.0704
     15 C           0.2249    2.1821    0.7050 C.ar    1  LIG1        0.1491
     16 C           0.1402    3.5984    0.9433 C.ar    1  LIG1        0.0626
     17 C          -1.0837    4.0949    0.5895 C.ar    1  LIG1        0.0468
     18 S          -2.1186    2.8483   -0.0468 S.2     1  LIG1       -0.0822
     19 O           1.3527    1.4870    1.0202 O.3     1  LIG1       -0.4928
     20 C           2.1760    1.1543   -0.1064 C.3     1  LIG1        0.0789
     21 H           3.0222    0.6038    0.2951 H       1  LIG1        0.0660
     22 H           1.6124    0.5326   -0.8038 H       1  LIG1        0.0660
     23 H           2.5123    2.0721   -0.5897 H       1  LIG1        0.0660
     24 S           1.5343    4.4072    1.6615 S.3     1  LIG1       -0.1380
     25 H           1.2543    5.6245    1.1735 H       1  LIG1        0.1072
     26 C          -1.5923    5.4655    0.6885 C.ar    1  LIG1        0.0698
     27 C          -0.9757    6.6224    0.3063 C.ar    1  LIG1        0.1484
     28 C          -1.7674    7.7995    0.5296 C.ar    1  LIG1        0.0542
     29 C          -2.9734    7.4989    1.0756 C.ar    1  LIG1       -0.0069
     30 S          -3.1643    5.8047    1.3307 S.2     1  LIG1       -0.0912
     31 H          -3.7653    8.1776    1.3490 H       1  LIG1        0.0706
     32 O           0.2726    6.7183   -0.2344 O.3     1  LIG1       -0.4928
     33 C           0.3785    6.2208   -1.5762 C.3     1  LIG1        0.0789
     34 H          -0.3022    6.7759   -2.2222 H       1  LIG1        0.0660
     35 H           1.4099    6.3889   -1.8743 H       1  LIG1        0.0660
     36 H           0.1440    5.1555   -1.5970 H       1  LIG1        0.0660
     37 S          -1.0915    9.3725    0.0786 S.3     1  LIG1       -0.1386
     38 H          -2.2233   10.0517    0.2824 H       1  LIG1        0.1072
@<TRIPOS>BOND
     1    34    33    1
     2     6     1    1
     3    35    33    1
     4     5     1   ar
     5     5     4   ar
     6    36    33    1
     7    33    32    1
     8     1     2   ar
     9    11     8    1
    10    22    20    1
    11    10     8    1
    12    23    20    1
    13     8     9    1
    14     8     7    1
    15     2     7    1
    16     2     3   ar
    17    32    27    1
    18     4    14    1
    19     4     3   ar
    20    20    21    1
    21    20    19    1
    22    18    14   ar
    23    18    17   ar
    24    37    38    1
    25    37    28    1
    26    14    15   ar
    27    27    28   ar
    28    27    26   ar
    29     3    12    1
    30    28    29   ar
    31    17    26    1
    32    17    16   ar
    33    26    30   ar
    34    15    16   ar
    35    15    19    1
    36    16    24    1
    37    29    30   ar
    38    29    31    1
    39    25    24    1
    40    12    13    1
