@<TRIPOS>MOLECULE
mol_data/opt/m06hf/geoms/mol2/5lh.out
 15 15 0 0 0
SMALL
GASTEIGER

@<TRIPOS>ATOM
      1 C          -2.2371   -1.6218    0.0244 C.ar    1  LIG1        0.0193
      2 C          -0.8813   -1.6446   -0.0126 C.ar    1  LIG1        0.1476
      3 C          -0.2782   -0.3272   -0.0364 C.ar    1  LIG1        0.0739
      4 C          -1.2206    0.6472   -0.0215 C.ar    1  LIG1        0.0000
      5 S          -2.8296    0.0042    0.0284 S.2     1  LIG1       -0.0995
      6 H          -2.9218   -2.4520    0.0429 H       1  LIG1        0.0731
      7 H          -1.0605    1.7127   -0.0193 H       1  LIG1        0.0713
      8 O          -0.0434   -2.7101   -0.0464 O.3     1  LIG1       -0.4927
      9 C          -0.6620   -3.9831   -0.0223 C.3     1  LIG1        0.0789
     10 H           0.1403   -4.7149   -0.0499 H       1  LIG1        0.0660
     11 H          -1.2452   -4.0999    0.8948 H       1  LIG1        0.0660
     12 H          -1.3108   -4.1037   -0.8941 H       1  LIG1        0.0660
     13 N           1.1120   -0.1958   -0.0174 N.pl3   1  LIG1       -0.3547
     14 H           1.5781   -1.0364   -0.3356 H       1  LIG1        0.1424
     15 H           1.4577    0.6320   -0.4822 H       1  LIG1        0.1424
@<TRIPOS>BOND
     1    12     9    1
     2    15    13    1
     3    14    13    1
     4    10     9    1
     5     8     9    1
     6     8     2    1
     7     3     4   ar
     8     3    13    1
     9     3     2   ar
    10     9    11    1
    11     4     7    1
    12     4     5   ar
    13     2     1   ar
    14     1     5   ar
    15     1     6    1
