@<TRIPOS>MOLECULE
mol_data/opt/m06hf/geoms/mol2/5lh5lh5lh-5lh.out
 54 57 0 0 0
SMALL
GASTEIGER

@<TRIPOS>ATOM
      1 C          -0.4371   -1.4069    2.6925 C.ar    1  LIG1        0.0199
      2 C          -0.6333   -1.9106    1.4513 C.ar    1  LIG1        0.1482
      3 C          -0.7021   -0.9013    0.4100 C.ar    1  LIG1        0.0824
      4 C          -0.5522    0.3581    0.9271 C.ar    1  LIG1        0.0538
      5 S          -0.2976    0.3185    2.6599 S.2     1  LIG1       -0.0904
      6 H          -0.3526   -1.9400    3.6243 H       1  LIG1        0.0731
      7 O          -0.7986   -3.1992    1.0669 O.3     1  LIG1       -0.4927
      8 C          -0.7856   -4.1574    2.1087 C.3     1  LIG1        0.0789
      9 H          -0.9345   -5.1253    1.6385 H       1  LIG1        0.0660
     10 H           0.1768   -4.1375    2.6261 H       1  LIG1        0.0660
     11 H          -1.5927   -3.9545    2.8171 H       1  LIG1        0.0660
     12 N          -0.8681   -1.2932   -0.8943 N.pl3   1  LIG1       -0.3542
     13 H          -1.3187   -2.1856   -1.0271 H       1  LIG1        0.1425
     14 H          -1.0154   -0.5728   -1.5864 H       1  LIG1        0.1425
     15 C          -0.6344    1.6392    0.2318 C.ar    1  LIG1        0.0718
     16 C          -0.3207    1.9281   -1.0632 C.ar    1  LIG1        0.1565
     17 C          -0.5040    3.3109   -1.4256 C.ar    1  LIG1        0.0831
     18 C          -0.9796    4.0505   -0.3784 C.ar    1  LIG1        0.0544
     19 S          -1.1829    3.0690    1.0564 S.2     1  LIG1       -0.0814
     20 O           0.1425    1.0483   -2.0062 O.3     1  LIG1       -0.4921
     21 C           1.5106    0.6652   -1.8106 C.3     1  LIG1        0.0789
     22 H           1.7502   -0.0201   -2.6193 H       1  LIG1        0.0660
     23 H           2.1414    1.5542   -1.8571 H       1  LIG1        0.0660
     24 H           1.6181    0.1650   -0.8477 H       1  LIG1        0.0660
     25 N          -0.1185    3.7324   -2.6850 N.pl3   1  LIG1       -0.3542
     26 H          -0.1974    3.0209   -3.3979 H       1  LIG1        0.1425
     27 H          -0.4030    4.6580   -2.9688 H       1  LIG1        0.1425
     28 C          -1.3296    5.4655   -0.3666 C.ar    1  LIG1        0.0719
     29 C          -1.2257    6.3266    0.6798 C.ar    1  LIG1        0.1565
     30 C          -1.6746    7.6721    0.4028 C.ar    1  LIG1        0.0831
     31 C          -2.1357    7.7912   -0.8809 C.ar    1  LIG1        0.0544
     32 S          -2.0572    6.2638   -1.7330 S.2     1  LIG1       -0.0814
     33 O          -0.7382    6.0044    1.9144 O.3     1  LIG1       -0.4921
     34 C           0.6935    6.0433    1.9760 C.3     1  LIG1        0.0789
     35 H           0.9607    5.7873    2.9979 H       1  LIG1        0.0660
     36 H           1.1116    5.3137    1.2813 H       1  LIG1        0.0660
     37 H           1.0427    7.0473    1.7273 H       1  LIG1        0.0660
     38 N          -1.5377    8.6509    1.3643 N.pl3   1  LIG1       -0.3542
     39 H          -1.4226    8.2665    2.2933 H       1  LIG1        0.1425
     40 H          -2.2014    9.4151    1.2969 H       1  LIG1        0.1425
     41 C          -2.6409    8.9878   -1.5431 C.ar    1  LIG1        0.0713
     42 C          -3.3829    9.9885   -0.9916 C.ar    1  LIG1        0.1559
     43 C          -3.7344   11.0452   -1.9070 C.ar    1  LIG1        0.0746
     44 C          -3.2403   10.8085   -3.1496 C.ar    1  LIG1        0.0006
     45 S          -2.3404    9.3263   -3.2184 S.2     1  LIG1       -0.0905
     46 H          -3.3614   11.4098   -4.0351 H       1  LIG1        0.0713
     47 O          -3.8067   10.0381    0.3129 O.3     1  LIG1       -0.4921
     48 C          -4.9562    9.2146    0.5575 C.3     1  LIG1        0.0789
     49 H          -5.1928    9.3250    1.6133 H       1  LIG1        0.0660
     50 H          -5.7855    9.5631   -0.0592 H       1  LIG1        0.0660
     51 H          -4.7176    8.1759    0.3266 H       1  LIG1        0.0660
     52 N          -4.5543   12.0894   -1.4699 N.pl3   1  LIG1       -0.3547
     53 H          -4.4425   12.2598   -0.4773 H       1  LIG1        0.1424
     54 H          -4.4688   12.9389   -2.0106 H       1  LIG1        0.1424
@<TRIPOS>BOND
     1    46    44    1
     2    26    25    1
     3    45    44   ar
     4    45    41   ar
     5    44    43   ar
     6    27    25    1
     7    25    17    1
     8    22    21    1
     9    54    52    1
    10    20    21    1
    11    20    16    1
    12    43    52    1
    13    43    42   ar
    14    23    21    1
    15    21    24    1
    16    32    31   ar
    17    32    28   ar
    18    14    12    1
    19    41    42   ar
    20    41    31    1
    21    52    53    1
    22    17    16   ar
    23    17    18   ar
    24    16    15   ar
    25    13    12    1
    26    42    47    1
    27    12     3    1
    28    31    30   ar
    29    18    28    1
    30    18    19   ar
    31    28    29   ar
    32    50    48    1
    33    15     4    1
    34    15    19   ar
    35    47    48    1
    36    51    48    1
    37    30    29   ar
    38    30    38    1
    39     3     4   ar
    40     3     2   ar
    41    48    49    1
    42    29    33    1
    43     4     5   ar
    44     7     2    1
    45     7     8    1
    46    36    34    1
    47    40    38    1
    48    38    39    1
    49     2     1   ar
    50     9     8    1
    51    37    34    1
    52    33    34    1
    53    34    35    1
    54     8    10    1
    55     8    11    1
    56     5     1   ar
    57     1     6    1
