@<TRIPOS>MOLECULE
mol_data/opt/m06hf/geoms/mol2/5lh5lh-5lh5lh.out
 54 57 0 0 0
SMALL
GASTEIGER

@<TRIPOS>ATOM
      1 C          -0.3675   -1.3754    2.7520 C.ar    1  LIG1        0.0199
      2 C          -0.6128   -1.8943    1.5259 C.ar    1  LIG1        0.1482
      3 C          -0.7146   -0.8985    0.4743 C.ar    1  LIG1        0.0824
      4 C          -0.5384    0.3667    0.9685 C.ar    1  LIG1        0.0538
      5 S          -0.2195    0.3485    2.6910 S.2     1  LIG1       -0.0904
      6 H          -0.2515   -1.8966    3.6872 H       1  LIG1        0.0731
      7 O          -0.7997   -3.1868    1.1654 O.3     1  LIG1       -0.4927
      8 C          -0.7533   -4.1312    2.2188 C.3     1  LIG1        0.0789
      9 H          -0.9252   -5.1043    1.7676 H       1  LIG1        0.0660
     10 H           0.2278   -4.1104    2.6997 H       1  LIG1        0.0660
     11 H          -1.5323   -3.9139    2.9540 H       1  LIG1        0.0660
     12 N          -0.9314   -1.3066   -0.8174 N.pl3   1  LIG1       -0.3542
     13 H          -1.3917   -2.1980   -0.9213 H       1  LIG1        0.1425
     14 H          -1.1002   -0.5946   -1.5132 H       1  LIG1        0.1425
     15 C          -0.6390    1.6389    0.2596 C.ar    1  LIG1        0.0718
     16 C          -0.3723    1.9087   -1.0500 C.ar    1  LIG1        0.1565
     17 C          -0.5610    3.2876   -1.4240 C.ar    1  LIG1        0.0831
     18 C          -0.9930    4.0440   -0.3699 C.ar    1  LIG1        0.0544
     19 S          -1.1482    3.0829    1.0846 S.2     1  LIG1       -0.0814
     20 O           0.0504    1.0135   -1.9977 O.3     1  LIG1       -0.4921
     21 C           1.4226    0.6246   -1.8480 C.3     1  LIG1        0.0789
     22 H           1.6279   -0.0729   -2.6557 H       1  LIG1        0.0660
     23 H           2.0563    1.5089   -1.9299 H       1  LIG1        0.0660
     24 H           1.5631    0.1366   -0.8831 H       1  LIG1        0.0660
     25 N          -0.2203    3.6900   -2.7025 N.pl3   1  LIG1       -0.3542
     26 H          -0.3299    2.9696   -3.4023 H       1  LIG1        0.1425
     27 H          -0.5100    4.6135   -2.9879 H       1  LIG1        0.1425
     28 C          -1.3341    5.4612   -0.3642 C.ar    1  LIG1        0.0719
     29 C          -1.1863    6.3355    0.6659 C.ar    1  LIG1        0.1565
     30 C          -1.6376    7.6799    0.3877 C.ar    1  LIG1        0.0831
     31 C          -2.1455    7.7848   -0.8795 C.ar    1  LIG1        0.0544
     32 S          -2.1076    6.2459   -1.7132 S.2     1  LIG1       -0.0814
     33 O          -0.6550    6.0266    1.8857 O.3     1  LIG1       -0.4921
     34 C           0.7783    6.0575    1.8935 C.3     1  LIG1        0.0789
     35 H           1.0819    5.8133    2.9081 H       1  LIG1        0.0660
     36 H           1.1659    5.3161    1.1936 H       1  LIG1        0.0660
     37 H           1.1237    7.0559    1.6184 H       1  LIG1        0.0660
     38 N          -1.4592    8.6705    1.3301 N.pl3   1  LIG1       -0.3542
     39 H          -1.3118    8.2978    2.2593 H       1  LIG1        0.1425
     40 H          -2.1207    9.4378    1.2772 H       1  LIG1        0.1425
     41 C          -2.6682    8.9757   -1.5384 C.ar    1  LIG1        0.0713
     42 C          -3.3834    9.9882   -0.9733 C.ar    1  LIG1        0.1559
     43 C          -3.7627   11.0349   -1.8891 C.ar    1  LIG1        0.0746
     44 C          -3.3166   10.7786   -3.1459 C.ar    1  LIG1        0.0006
     45 S          -2.4285    9.2900   -3.2282 S.2     1  LIG1       -0.0905
     46 H          -3.4673   11.3689   -4.0343 H       1  LIG1        0.0713
     47 O          -3.7580   10.0578    0.3453 O.3     1  LIG1       -0.4921
     48 C          -4.9022    9.2448    0.6436 C.3     1  LIG1        0.0789
     49 H          -5.0987    9.3707    1.7059 H       1  LIG1        0.0660
     50 H          -5.7519    9.5903    0.0535 H       1  LIG1        0.0660
     51 H          -4.6784    8.2017    0.4180 H       1  LIG1        0.0660
     52 N          -4.5598   12.0898   -1.4359 N.pl3   1  LIG1       -0.3547
     53 H          -4.4099   12.2727   -0.4506 H       1  LIG1        0.1424
     54 H          -4.4896   12.9315   -1.9909 H       1  LIG1        0.1424
@<TRIPOS>BOND
     1    46    44    1
     2    26    25    1
     3    45    44   ar
     4    45    41   ar
     5    44    43   ar
     6    27    25    1
     7    25    17    1
     8    22    21    1
     9    20    21    1
    10    20    16    1
    11    54    52    1
    12    23    21    1
    13    43    52    1
    14    43    42   ar
    15    21    24    1
    16    32    31   ar
    17    32    28   ar
    18    41    42   ar
    19    41    31    1
    20    14    12    1
    21    52    53    1
    22    17    16   ar
    23    17    18   ar
    24    16    15   ar
    25    42    47    1
    26    13    12    1
    27    31    30   ar
    28    12     3    1
    29    18    28    1
    30    18    19   ar
    31    28    29   ar
    32    50    48    1
    33    15     4    1
    34    15    19   ar
    35    47    48    1
    36    30    29   ar
    37    30    38    1
    38    51    48    1
    39     3     4   ar
    40     3     2   ar
    41    48    49    1
    42    29    33    1
    43     4     5   ar
    44     7     2    1
    45     7     8    1
    46    36    34    1
    47    40    38    1
    48    38    39    1
    49     2     1   ar
    50    37    34    1
    51     9     8    1
    52    33    34    1
    53    34    35    1
    54     8    10    1
    55     8    11    1
    56     5     1   ar
    57     1     6    1
