@<TRIPOS>MOLECULE
mol_data/opt/m06hf/geoms/mol2/5lh5lh.out
 28 29 0 0 0
SMALL
GASTEIGER

@<TRIPOS>ATOM
      1 C          -2.1833   -1.9031    0.5883 C.ar    1  LIG1        0.0199
      2 C          -0.9979   -1.9689   -0.0617 C.ar    1  LIG1        0.1482
      3 C          -0.4328   -0.6721   -0.3897 C.ar    1  LIG1        0.0824
      4 C          -1.2430    0.3457    0.0347 C.ar    1  LIG1        0.0537
      5 S          -2.6622   -0.2595    0.8592 S.2     1  LIG1       -0.0904
      6 H          -2.8015   -2.7131    0.9359 H       1  LIG1        0.0731
      7 O          -0.2994   -3.0594   -0.4605 O.3     1  LIG1       -0.4927
      8 C          -0.8895   -4.3105   -0.1593 C.3     1  LIG1        0.0789
      9 H          -0.2173   -5.0695   -0.5493 H       1  LIG1        0.0660
     10 H          -0.9969   -4.4249    0.9221 H       1  LIG1        0.0660
     11 H          -1.8678   -4.3910   -0.6403 H       1  LIG1        0.0660
     12 N           0.7905   -0.6097   -1.0117 N.pl3   1  LIG1       -0.3542
     13 H           1.0316   -1.4135   -1.5711 H       1  LIG1        0.1425
     14 H           1.1156    0.2964   -1.3165 H       1  LIG1        0.1425
     15 C          -1.0622    1.7839   -0.1479 C.ar    1  LIG1        0.0712
     16 C           0.0978    2.4968   -0.2271 C.ar    1  LIG1        0.1559
     17 C          -0.0885    3.9169   -0.4024 C.ar    1  LIG1        0.0746
     18 C          -1.4050    4.2420   -0.4606 C.ar    1  LIG1        0.0006
     19 S          -2.4245    2.8487   -0.3126 S.2     1  LIG1       -0.0905
     20 H          -1.8385    5.2227   -0.5621 H       1  LIG1        0.0713
     21 O           1.3700    1.9905   -0.1574 O.3     1  LIG1       -0.4921
     22 C           1.7406    1.5491    1.1556 C.3     1  LIG1        0.0789
     23 H           2.7666    1.1987    1.0780 H       1  LIG1        0.0660
     24 H           1.6688    2.3880    1.8494 H       1  LIG1        0.0660
     25 H           1.0885    0.7330    1.4679 H       1  LIG1        0.0660
     26 N           1.0249    4.7589   -0.4113 N.pl3   1  LIG1       -0.3547
     27 H           1.8601    4.2729   -0.7136 H       1  LIG1        0.1424
     28 H           0.8880    5.6318   -0.9013 H       1  LIG1        0.1424
@<TRIPOS>BOND
     1    13    12    1
     2    14    12    1
     3    12     3    1
     4    28    26    1
     5    27    26    1
     6    11     8    1
     7    20    18    1
     8     9     8    1
     9    18    17   ar
    10    18    19   ar
    11     7     8    1
    12     7     2    1
    13    26    17    1
    14    17    16   ar
    15     3     2   ar
    16     3     4   ar
    17    19    15   ar
    18    16    21    1
    19    16    15   ar
    20     8    10    1
    21    21    22    1
    22    15     4    1
    23     2     1   ar
    24     4     5   ar
    25     1     5   ar
    26     1     6    1
    27    23    22    1
    28    22    25    1
    29    22    24    1
