@<TRIPOS>MOLECULE
mol_data/opt/m06hf/geoms/mol2/5lh5lh-5lh.out
 41 43 0 0 0
SMALL
GASTEIGER

@<TRIPOS>ATOM
      1 C          -2.0852   -1.9643    1.0174 C.ar    1  LIG1        0.0199
      2 C          -1.0608   -2.1313    0.1483 C.ar    1  LIG1        0.1482
      3 C          -0.5011   -0.8871   -0.3500 C.ar    1  LIG1        0.0824
      4 C          -1.1515    0.1968    0.1781 C.ar    1  LIG1        0.0538
      5 S          -2.4109   -0.2866    1.2954 S.2     1  LIG1       -0.0904
      6 H          -2.6635   -2.7199    1.5216 H       1  LIG1        0.0731
      7 O          -0.5186   -3.2782   -0.3276 O.3     1  LIG1       -0.4927
      8 C          -1.0857   -4.4783    0.1647 C.3     1  LIG1        0.0789
      9 H          -0.5481   -5.2919   -0.3137 H       1  LIG1        0.0660
     10 H          -0.9629   -4.5347    1.2494 H       1  LIG1        0.0660
     11 H          -2.1468   -4.5266   -0.0933 H       1  LIG1        0.0660
     12 N           0.5617   -0.9329   -1.2126 N.pl3   1  LIG1       -0.3542
     13 H           0.6682   -1.7867   -1.7373 H       1  LIG1        0.1425
     14 H           0.8915   -0.0675   -1.6127 H       1  LIG1        0.1425
     15 C          -0.9370    1.6121   -0.1064 C.ar    1  LIG1        0.0718
     16 C           0.2109    2.2453   -0.4763 C.ar    1  LIG1        0.1565
     17 C           0.0848    3.6718   -0.6587 C.ar    1  LIG1        0.0831
     18 C          -1.1941    4.0987   -0.4195 C.ar    1  LIG1        0.0544
     19 S          -2.2332    2.7650    0.0366 S.2     1  LIG1       -0.0814
     20 O           1.4297    1.6531   -0.6823 O.3     1  LIG1       -0.4921
     21 C           2.1112    1.3231    0.5350 C.3     1  LIG1        0.0789
     22 H           3.0549    0.8710    0.2410 H       1  LIG1        0.0660
     23 H           2.2818    2.2361    1.1078 H       1  LIG1        0.0660
     24 H           1.5146    0.6130    1.1085 H       1  LIG1        0.0660
     25 N           1.2086    4.4045   -0.9738 N.pl3   1  LIG1       -0.3542
     26 H           1.8964    3.8999   -1.5141 H       1  LIG1        0.1425
     27 H           1.0714    5.3809   -1.1953 H       1  LIG1        0.1425
     28 C          -1.7441    5.4454   -0.5414 C.ar    1  LIG1        0.0713
     29 C          -1.1167    6.6429   -0.3589 C.ar    1  LIG1        0.1559
     30 C          -1.9604    7.7950   -0.5624 C.ar    1  LIG1        0.0746
     31 C          -3.2229    7.4328   -0.9055 C.ar    1  LIG1        0.0006
     32 S          -3.4006    5.7108   -0.9955 S.2     1  LIG1       -0.0905
     33 H          -4.0670    8.0745   -1.0952 H       1  LIG1        0.0713
     34 O           0.1981    6.8251   -0.0148 O.3     1  LIG1       -0.4921
     35 C           0.4784    6.5085    1.3549 C.3     1  LIG1        0.0789
     36 H           1.5376    6.7052    1.5000 H       1  LIG1        0.0660
     37 H          -0.1253    7.1465    2.0019 H       1  LIG1        0.0660
     38 H           0.2608    5.4563    1.5421 H       1  LIG1        0.0660
     39 N          -1.4462    9.0727   -0.3280 N.pl3   1  LIG1       -0.3547
     40 H          -0.4402    9.0960   -0.4465 H       1  LIG1        0.1424
     41 H          -1.9078    9.8102   -0.8419 H       1  LIG1        0.1424
@<TRIPOS>BOND
     1    13    12    1
     2    14    12    1
     3    26    25    1
     4    12     3    1
     5    27    25    1
     6    33    31    1
     7    32    31   ar
     8    32    28   ar
     9    25    17    1
    10    31    30   ar
    11    41    39    1
    12    20    16    1
    13    20    21    1
    14    17    16   ar
    15    17    18   ar
    16    30    29   ar
    17    30    39    1
    18    28    18    1
    19    28    29   ar
    20    16    15   ar
    21    40    39    1
    22    18    19   ar
    23    29    34    1
    24     3     2   ar
    25     3     4   ar
    26     7     2    1
    27     7     8    1
    28     9     8    1
    29    15    19   ar
    30    15     4    1
    31    11     8    1
    32    34    35    1
    33     2     1   ar
    34     8    10    1
    35     4     5   ar
    36    22    21    1
    37    21    23    1
    38    21    24    1
    39     1     5   ar
    40     1     6    1
    41    35    36    1
    42    35    38    1
    43    35    37    1
