@<TRIPOS>MOLECULE
mol_data/opt/m06hf/geoms/mol2/5lh5lh-5lh5lh-.out
 54 57 0 0 0
SMALL
GASTEIGER

@<TRIPOS>ATOM
      1 C           0.9082   -2.0070    1.1032 C.ar    1  LIG1        0.0199
      2 C          -0.2703   -1.6988    1.6962 C.ar    1  LIG1        0.1482
      3 C          -0.7728   -0.3873    1.3408 C.ar    1  LIG1        0.0824
      4 C           0.0781    0.2614    0.4895 C.ar    1  LIG1        0.0538
      5 S           1.4640   -0.7258    0.0797 S.2     1  LIG1       -0.0904
      6 H           1.4800   -2.9156    1.1920 H       1  LIG1        0.0731
      7 O          -1.0156   -2.4302    2.5607 O.3     1  LIG1       -0.4927
      8 C          -0.5031   -3.7099    2.8816 C.3     1  LIG1        0.0789
      9 H          -1.2100   -4.1604    3.5723 H       1  LIG1        0.0660
     10 H          -0.4214   -4.3189    1.9777 H       1  LIG1        0.0660
     11 H           0.4775   -3.6156    3.3557 H       1  LIG1        0.0660
     12 N          -2.0049    0.0126    1.8119 N.pl3   1  LIG1       -0.3542
     13 H          -2.2910   -0.4151    2.6798 H       1  LIG1        0.1425
     14 H          -2.2757    0.9747    1.6812 H       1  LIG1        0.1425
     15 C          -0.0564    1.6109   -0.0472 C.ar    1  LIG1        0.0718
     16 C           0.4354    2.0683   -1.2297 C.ar    1  LIG1        0.1565
     17 C           0.1868    3.4651   -1.4768 C.ar    1  LIG1        0.0831
     18 C          -0.5060    4.0505   -0.4541 C.ar    1  LIG1        0.0544
     19 S          -0.8103    2.9076    0.8399 S.2     1  LIG1       -0.0814
     20 O           1.1232    1.3184   -2.1421 O.3     1  LIG1       -0.4921
     21 C           0.2595    0.6092   -3.0405 C.3     1  LIG1        0.0789
     22 H           0.9098    0.0732   -3.7270 H       1  LIG1        0.0660
     23 H          -0.3588   -0.0918   -2.4787 H       1  LIG1        0.0660
     24 H          -0.3684    1.3188   -3.5824 H       1  LIG1        0.0660
     25 N           0.5934    4.0354   -2.6756 N.pl3   1  LIG1       -0.3542
     26 H           1.3083    3.4775   -3.1289 H       1  LIG1        0.1425
     27 H           0.8356    5.0175   -2.6266 H       1  LIG1        0.1425
     28 C          -1.0189    5.4097   -0.3915 C.ar    1  LIG1        0.0719
     29 C          -1.4375    6.0685    0.7233 C.ar    1  LIG1        0.1565
     30 C          -1.9428    7.3980    0.4875 C.ar    1  LIG1        0.0831
     31 C          -1.8941    7.7206   -0.8423 C.ar    1  LIG1        0.0544
     32 S          -1.2691    6.3970   -1.8037 S.2     1  LIG1       -0.0814
     33 O          -1.3949    5.5510    1.9885 O.3     1  LIG1       -0.4921
     34 C          -0.1753    5.8712    2.6735 C.3     1  LIG1        0.0789
     35 H          -0.2547    5.4232    3.6608 H       1  LIG1        0.0660
     36 H           0.6709    5.4463    2.1327 H       1  LIG1        0.0660
     37 H          -0.0712    6.9550    2.7494 H       1  LIG1        0.0660
     38 N          -2.3318    8.1843    1.5561 N.pl3   1  LIG1       -0.3542
     39 H          -2.5680    7.6288    2.3692 H       1  LIG1        0.1425
     40 H          -3.0185    8.8957    1.3268 H       1  LIG1        0.1425
     41 C          -2.2787    8.9770   -1.4753 C.ar    1  LIG1        0.0713
     42 C          -3.3106    9.7977   -1.1328 C.ar    1  LIG1        0.1559
     43 C          -3.4406   10.9713   -1.9598 C.ar    1  LIG1        0.0746
     44 C          -2.4849   11.0063   -2.9231 C.ar    1  LIG1        0.0006
     45 S          -1.4189    9.6411   -2.8296 S.2     1  LIG1       -0.0905
     46 H          -2.3477   11.7480   -3.6920 H       1  LIG1        0.0713
     47 O          -4.1989    9.5733   -0.1107 O.3     1  LIG1       -0.4921
     48 C          -5.2540    8.6725   -0.4785 C.3     1  LIG1        0.0789
     49 H          -5.8890    8.5708    0.3985 H       1  LIG1        0.0660
     50 H          -5.8157    9.0977   -1.3108 H       1  LIG1        0.0660
     51 H          -4.8289    7.7075   -0.7559 H       1  LIG1        0.0660
     52 N          -4.5100   11.8463   -1.7465 N.pl3   1  LIG1       -0.3547
     53 H          -4.7923   11.8587   -0.7734 H       1  LIG1        0.1424
     54 H          -4.3633   12.7780   -2.1095 H       1  LIG1        0.1424
@<TRIPOS>BOND
     1    22    21    1
     2    46    44    1
     3    24    21    1
     4    26    25    1
     5    21    23    1
     6    21    20    1
     7    44    45   ar
     8    44    43   ar
     9    45    41   ar
    10    25    27    1
    11    25    17    1
    12    20    16    1
    13    54    52    1
    14    43    52    1
    15    43    42   ar
    16    32    31   ar
    17    32    28   ar
    18    52    53    1
    19    17    16   ar
    20    17    18   ar
    21    41    42   ar
    22    41    31    1
    23    50    48    1
    24    16    15   ar
    25    42    47    1
    26    31    30   ar
    27    51    48    1
    28    48    47    1
    29    48    49    1
    30    18    28    1
    31    18    19   ar
    32    28    29   ar
    33    15     4    1
    34    15    19   ar
    35     5     4   ar
    36     5     1   ar
    37    30    29   ar
    38    30    38    1
    39     4     3   ar
    40    29    33    1
    41     1     6    1
    42     1     2   ar
    43    40    38    1
    44     3     2   ar
    45     3    12    1
    46    38    39    1
    47    14    12    1
    48     2     7    1
    49    12    13    1
    50    10     8    1
    51    33    34    1
    52    36    34    1
    53     7     8    1
    54    34    37    1
    55    34    35    1
    56     8    11    1
    57     8     9    1
