@<TRIPOS>MOLECULE
mol_data/opt/m06hf/geoms/mol2/5lh5lh5lh-.out
 41 43 0 0 0
SMALL
GASTEIGER

@<TRIPOS>ATOM
      1 C          -2.0843   -1.9624    1.0294 C.ar    1  LIG1        0.0199
      2 C          -1.0751   -2.1296    0.1428 C.ar    1  LIG1        0.1482
      3 C          -0.5190   -0.8855   -0.3596 C.ar    1  LIG1        0.0824
      4 C          -1.1562    0.1987    0.1838 C.ar    1  LIG1        0.0538
      5 S          -2.3987   -0.2846    1.3198 S.2     1  LIG1       -0.0904
      6 H          -2.6571   -2.7178    1.5401 H       1  LIG1        0.0731
      7 O          -0.5454   -3.2766   -0.3468 O.3     1  LIG1       -0.4927
      8 C          -1.1090   -4.4765    0.1498 C.3     1  LIG1        0.0789
      9 H          -0.5826   -5.2901   -0.3408 H       1  LIG1        0.0660
     10 H          -0.9684   -4.5380    1.2320 H       1  LIG1        0.0660
     11 H          -2.1744   -4.5197   -0.0907 H       1  LIG1        0.0660
     12 N           0.5292   -0.9317   -1.2399 N.pl3   1  LIG1       -0.3542
     13 H           0.6236   -1.7837   -1.7699 H       1  LIG1        0.1425
     14 H           0.8556   -0.0659   -1.6419 H       1  LIG1        0.1425
     15 C          -0.9410    1.6144   -0.0983 C.ar    1  LIG1        0.0718
     16 C           0.2031    2.2447   -0.4846 C.ar    1  LIG1        0.1565
     17 C           0.0795    3.6724   -0.6589 C.ar    1  LIG1        0.0831
     18 C          -1.1935    4.1032   -0.3967 C.ar    1  LIG1        0.0544
     19 S          -2.2301    2.7716    0.0711 S.2     1  LIG1       -0.0814
     20 O           1.4160    1.6487   -0.7134 O.3     1  LIG1       -0.4921
     21 C           2.1163    1.3110    0.4910 C.3     1  LIG1        0.0789
     22 H           3.0532    0.8565    0.1795 H       1  LIG1        0.0660
     23 H           2.3000    2.2208    1.0647 H       1  LIG1        0.0660
     24 H           1.5266    0.6007    1.0714 H       1  LIG1        0.0660
     25 N           1.2008    4.4022   -0.9897 N.pl3   1  LIG1       -0.3542
     26 H           1.8775    3.8972   -1.5435 H       1  LIG1        0.1425
     27 H           1.0638    5.3800   -1.2047 H       1  LIG1        0.1425
     28 C          -1.7402    5.4525   -0.5038 C.ar    1  LIG1        0.0713
     29 C          -1.1051    6.6468   -0.3268 C.ar    1  LIG1        0.1559
     30 C          -1.9476    7.8030   -0.5114 C.ar    1  LIG1        0.0746
     31 C          -3.2171    7.4471   -0.8350 C.ar    1  LIG1        0.0006
     32 S          -3.4029    5.7262   -0.9292 S.2     1  LIG1       -0.0905
     33 H          -4.0617    8.0928   -1.0079 H       1  LIG1        0.0713
     34 O           0.2159    6.8225   -0.0039 O.3     1  LIG1       -0.4921
     35 C           0.5177    6.4991    1.3596 C.3     1  LIG1        0.0789
     36 H           1.5799    6.6910    1.4879 H       1  LIG1        0.0660
     37 H          -0.0727    7.1366    2.0193 H       1  LIG1        0.0660
     38 H           0.2991    5.4469    1.5460 H       1  LIG1        0.0660
     39 N          -1.4246    9.0777   -0.2803 N.pl3   1  LIG1       -0.3547
     40 H          -0.4206    9.0977   -0.4153 H       1  LIG1        0.1424
     41 H          -1.8918    9.8192   -0.7833 H       1  LIG1        0.1424
@<TRIPOS>BOND
     1    13    12    1
     2    14    12    1
     3    26    25    1
     4    12     3    1
     5    27    25    1
     6    33    31    1
     7    25    17    1
     8    32    31   ar
     9    32    28   ar
    10    31    30   ar
    11    41    39    1
    12    20    16    1
    13    20    21    1
    14    17    16   ar
    15    17    18   ar
    16    30    29   ar
    17    30    39    1
    18    28    18    1
    19    28    29   ar
    20    16    15   ar
    21    40    39    1
    22    18    19   ar
    23     3     2   ar
    24     3     4   ar
    25     7     2    1
    26     7     8    1
    27     9     8    1
    28    29    34    1
    29    15    19   ar
    30    15     4    1
    31    11     8    1
    32    34    35    1
    33     2     1   ar
    34     8    10    1
    35    22    21    1
    36     4     5   ar
    37    21    23    1
    38    21    24    1
    39     1     5   ar
    40     1     6    1
    41    35    36    1
    42    35    38    1
    43    35    37    1
