@<TRIPOS>MOLECULE
mol_data/opt/m06hf/geoms/mol2/5lh5lh-5lh-5lh.out
 54 57 0 0 0
SMALL
GASTEIGER

@<TRIPOS>ATOM
      1 C          -0.3572   -1.3548    2.7871 C.ar    1  LIG1        0.0199
      2 C          -0.5838   -1.8810    1.5605 C.ar    1  LIG1        0.1482
      3 C          -0.6807   -0.8906    0.5033 C.ar    1  LIG1        0.0824
      4 C          -0.5201    0.3780    0.9938 C.ar    1  LIG1        0.0538
      5 S          -0.2217    0.3699    2.7201 S.2     1  LIG1       -0.0904
      6 H          -0.2483   -1.8710    3.7259 H       1  LIG1        0.0731
      7 O          -0.7565   -3.1765    1.2036 O.3     1  LIG1       -0.4927
      8 C          -0.7154   -4.1159    2.2617 C.3     1  LIG1        0.0789
      9 H          -0.8744   -5.0923    1.8129 H       1  LIG1        0.0660
     10 H           0.2597   -4.0853    2.7542 H       1  LIG1        0.0660
     11 H          -1.5047   -3.9013    2.9866 H       1  LIG1        0.0660
     12 N          -0.8789   -1.3062   -0.7891 N.pl3   1  LIG1       -0.3542
     13 H          -1.3311   -2.2015   -0.8944 H       1  LIG1        0.1425
     14 H          -1.0449   -0.5985   -1.4900 H       1  LIG1        0.1425
     15 C          -0.6221    1.6463    0.2780 C.ar    1  LIG1        0.0718
     16 C          -0.3418    1.9123   -1.0295 C.ar    1  LIG1        0.1565
     17 C          -0.5367    3.2881   -1.4119 C.ar    1  LIG1        0.0831
     18 C          -0.9870    4.0458   -0.3664 C.ar    1  LIG1        0.0544
     19 S          -1.1522    3.0899    1.0904 S.2     1  LIG1       -0.0814
     20 O           0.0990    1.0163   -1.9680 O.3     1  LIG1       -0.4921
     21 C           1.4723    0.6387   -1.8002 C.3     1  LIG1        0.0789
     22 H           1.6926   -0.0608   -2.6023 H       1  LIG1        0.0660
     23 H           2.1001    1.5275   -1.8786 H       1  LIG1        0.0660
     24 H           1.6050    0.1560   -0.8315 H       1  LIG1        0.0660
     25 N          -0.1839    3.6874   -2.6880 N.pl3   1  LIG1       -0.3542
     26 H          -0.2795    2.9631   -3.3858 H       1  LIG1        0.1425
     27 H          -0.4772    4.6074   -2.9810 H       1  LIG1        0.1425
     28 C          -1.3391    5.4603   -0.3712 C.ar    1  LIG1        0.0719
     29 C          -1.2104    6.3402    0.6567 C.ar    1  LIG1        0.1565
     30 C          -1.6686    7.6799    0.3671 C.ar    1  LIG1        0.0831
     31 C          -2.1621    7.7752   -0.9065 C.ar    1  LIG1        0.0544
     32 S          -2.1025    6.2330   -1.7328 S.2     1  LIG1       -0.0814
     33 O          -0.6913    6.0409    1.8842 O.3     1  LIG1       -0.4921
     34 C           0.7415    6.0829    1.9088 C.3     1  LIG1        0.0789
     35 H           1.0349    5.8456    2.9281 H       1  LIG1        0.0660
     36 H           1.1432    5.3414    1.2169 H       1  LIG1        0.0660
     37 H           1.0825    7.0827    1.6334 H       1  LIG1        0.0660
     38 N          -1.5092    8.6760    1.3071 N.pl3   1  LIG1       -0.3542
     39 H          -1.3700    8.3085    2.2396 H       1  LIG1        0.1425
     40 H          -2.1758    9.4379    1.2428 H       1  LIG1        0.1425
     41 C          -2.6861    8.9591   -1.5770 C.ar    1  LIG1        0.0713
     42 C          -3.4158    9.9685   -1.0250 C.ar    1  LIG1        0.1559
     43 C          -3.7922   11.0082   -1.9500 C.ar    1  LIG1        0.0746
     44 C          -3.3291   10.7498   -3.2002 C.ar    1  LIG1        0.0006
     45 S          -2.4287    9.2678   -3.2652 S.2     1  LIG1       -0.0905
     46 H          -3.4737   11.3350   -4.0930 H       1  LIG1        0.0713
     47 O          -3.8066   10.0411    0.2887 O.3     1  LIG1       -0.4921
     48 C          -4.9480    9.2205    0.5770 C.3     1  LIG1        0.0789
     49 H          -5.1581    9.3495    1.6363 H       1  LIG1        0.0660
     50 H          -5.7932    9.5568   -0.0246 H       1  LIG1        0.0660
     51 H          -4.7135    8.1781    0.3588 H       1  LIG1        0.0660
     52 N          -4.6027   12.0589   -1.5111 N.pl3   1  LIG1       -0.3547
     53 H          -4.4661   12.2473   -0.5249 H       1  LIG1        0.1424
     54 H          -4.5324   12.8987   -2.0689 H       1  LIG1        0.1424
@<TRIPOS>BOND
     1    46    44    1
     2    26    25    1
     3    45    44   ar
     4    45    41   ar
     5    44    43   ar
     6    27    25    1
     7    25    17    1
     8    22    21    1
     9    54    52    1
    10    20    21    1
    11    20    16    1
    12    43    52    1
    13    43    42   ar
    14    23    21    1
    15    21    24    1
    16    32    31   ar
    17    32    28   ar
    18    41    42   ar
    19    41    31    1
    20    52    53    1
    21    14    12    1
    22    17    16   ar
    23    17    18   ar
    24    16    15   ar
    25    42    47    1
    26    31    30   ar
    27    13    12    1
    28    12     3    1
    29    28    18    1
    30    28    29   ar
    31    18    19   ar
    32    50    48    1
    33    15     4    1
    34    15    19   ar
    35    47    48    1
    36    51    48    1
    37    30    29   ar
    38    30    38    1
    39     3     4   ar
    40     3     2   ar
    41    48    49    1
    42    29    33    1
    43     4     5   ar
    44     7     2    1
    45     7     8    1
    46    36    34    1
    47    40    38    1
    48    38    39    1
    49     2     1   ar
    50    37    34    1
    51     9     8    1
    52    33    34    1
    53    34    35    1
    54     8    10    1
    55     8    11    1
    56     5     1   ar
    57     1     6    1
