@<TRIPOS>MOLECULE
mol_data/opt/m06hf/geoms/mol2/5lh5lh-.out
 28 29 0 0 0
SMALL
GASTEIGER

@<TRIPOS>ATOM
      1 C          -1.0745   -1.9352   -1.1992 C.ar    1  LIG1        0.0199
      2 C          -1.0321   -2.0956    0.1462 C.ar    1  LIG1        0.1482
      3 C          -0.7579   -0.8709    0.8627 C.ar    1  LIG1        0.0824
      4 C          -0.6046    0.1892    0.0177 C.ar    1  LIG1        0.0537
      5 S          -0.7743   -0.2918   -1.6549 S.2     1  LIG1       -0.0904
      6 H          -1.2456   -2.6824   -1.9558 H       1  LIG1        0.0731
      7 O          -1.1985   -3.2217    0.8837 O.3     1  LIG1       -0.4927
      8 C          -1.4644   -4.4025    0.1499 C.3     1  LIG1        0.0789
      9 H          -1.5840   -5.1981    0.8800 H       1  LIG1        0.0660
     10 H          -2.3822   -4.2859   -0.4315 H       1  LIG1        0.0660
     11 H          -0.6277   -4.6277   -0.5165 H       1  LIG1        0.0660
     12 N          -0.7178   -0.8477    2.2563 N.pl3   1  LIG1       -0.3542
     13 H          -0.7843   -1.7780    2.6507 H       1  LIG1        0.1425
     14 H           0.0565   -0.3223    2.6449 H       1  LIG1        0.1425
     15 C          -0.3716    1.5806    0.3858 C.ar    1  LIG1        0.0712
     16 C           0.0382    2.5772   -0.4455 C.ar    1  LIG1        0.1559
     17 C           0.1544    3.8692    0.1821 C.ar    1  LIG1        0.0746
     18 C          -0.1756    3.8120    1.4973 C.ar    1  LIG1        0.0006
     19 S          -0.6416    2.2117    1.9863 S.2     1  LIG1       -0.0905
     20 H          -0.1749    4.6143    2.2163 H       1  LIG1        0.0713
     21 O           0.3074    2.4131   -1.7763 O.3     1  LIG1       -0.4921
     22 C           1.6960    2.1658   -2.0327 C.3     1  LIG1        0.0789
     23 H           1.7898    2.0521   -3.1100 H       1  LIG1        0.0660
     24 H           2.2897    3.0113   -1.6806 H       1  LIG1        0.0660
     25 H           2.0027    1.2484   -1.5289 H       1  LIG1        0.0660
     26 N           0.6126    4.9569   -0.5698 N.pl3   1  LIG1       -0.3547
     27 H           0.3321    4.8739   -1.5409 H       1  LIG1        0.1424
     28 H           0.3594    5.8577   -0.1867 H       1  LIG1        0.1424
@<TRIPOS>BOND
     1    23    22    1
     2    22    21    1
     3    22    24    1
     4    22    25    1
     5     6     1    1
     6    21    16    1
     7     5     1   ar
     8     5     4   ar
     9    27    26    1
    10     1     2   ar
    11    26    28    1
    12    26    17    1
    13    11     8    1
    14    16    17   ar
    15    16    15   ar
    16    10     8    1
    17     4    15    1
    18     4     3   ar
    19     2     3   ar
    20     2     7    1
    21     8     9    1
    22     8     7    1
    23    17    18   ar
    24    15    19   ar
    25     3    12    1
    26    18    19   ar
    27    18    20    1
    28    12    14    1
    29    12    13    1
