@<TRIPOS>MOLECULE
mol_data/opt/m06hf/geoms/mol2/5lh5lh-5lh-.out
 41 43 0 0 0
SMALL
GASTEIGER

@<TRIPOS>ATOM
      1 C          -2.0746   -1.9784    0.9801 C.ar    1  LIG1        0.0199
      2 C          -1.0390   -2.1352    0.1225 C.ar    1  LIG1        0.1482
      3 C          -0.4799   -0.8853   -0.3620 C.ar    1  LIG1        0.0824
      4 C          -1.1422    0.1922    0.1642 C.ar    1  LIG1        0.0538
      5 S          -2.4124   -0.3040    1.2635 S.2     1  LIG1       -0.0904
      6 H          -2.6551   -2.7398    1.4731 H       1  LIG1        0.0731
      7 O          -0.4851   -3.2766   -0.3532 O.3     1  LIG1       -0.4927
      8 C          -1.0519   -4.4823    0.1255 C.3     1  LIG1        0.0789
      9 H          -0.5044   -5.2904   -0.3509 H       1  LIG1        0.0660
     10 H          -0.9419   -4.5442    1.2112 H       1  LIG1        0.0660
     11 H          -2.1095   -4.5347   -0.1456 H       1  LIG1        0.0660
     12 N           0.5935   -0.9208   -1.2120 N.pl3   1  LIG1       -0.3542
     13 H           0.7107   -1.7711   -1.7402 H       1  LIG1        0.1425
     14 H           0.9235   -0.0514   -1.6033 H       1  LIG1        0.1425
     15 C          -0.9317    1.6102   -0.1097 C.ar    1  LIG1        0.0718
     16 C           0.2173    2.2513   -0.4622 C.ar    1  LIG1        0.1565
     17 C           0.0859    3.6782   -0.6381 C.ar    1  LIG1        0.0831
     18 C          -1.1979    4.0972   -0.4120 C.ar    1  LIG1        0.0544
     19 S          -2.2355    2.7556    0.0241 S.2     1  LIG1       -0.0814
     20 O           1.4416    1.6666   -0.6568 O.3     1  LIG1       -0.4921
     21 C           2.1101    1.3333    0.5667 C.3     1  LIG1        0.0789
     22 H           3.0596    0.8877    0.2817 H       1  LIG1        0.0660
     23 H           2.2690    2.2438    1.1467 H       1  LIG1        0.0660
     24 H           1.5103    0.6168    1.1291 H       1  LIG1        0.0660
     25 N           1.2096    4.4185   -0.9355 N.pl3   1  LIG1       -0.3542
     26 H           1.9065    3.9205   -1.4704 H       1  LIG1        0.1425
     27 H           1.0701    5.3954   -1.1532 H       1  LIG1        0.1425
     28 C          -1.7535    5.4417   -0.5329 C.ar    1  LIG1        0.0713
     29 C          -1.1345    6.6414   -0.3362 C.ar    1  LIG1        0.1559
     30 C          -1.9817    7.7902   -0.5434 C.ar    1  LIG1        0.0746
     31 C          -3.2381    7.4235   -0.9037 C.ar    1  LIG1        0.0006
     32 S          -3.4057    5.7011   -1.0055 S.2     1  LIG1       -0.0905
     33 H          -4.0832    8.0619   -1.1000 H       1  LIG1        0.0713
     34 O           0.1751    6.8284    0.0248 O.3     1  LIG1       -0.4921
     35 C           0.4406    6.5055    1.3960 C.3     1  LIG1        0.0789
     36 H           1.4969    6.7067    1.5550 H       1  LIG1        0.0660
     37 H          -0.1742    7.1367    2.0392 H       1  LIG1        0.0660
     38 H           0.2262    5.4511    1.5746 H       1  LIG1        0.0660
     39 N          -1.4770    9.0692   -0.2957 N.pl3   1  LIG1       -0.3547
     40 H          -0.4698    9.0984   -0.4018 H       1  LIG1        0.1424
     41 H          -1.9362    9.8072   -0.8110 H       1  LIG1        0.1424
@<TRIPOS>BOND
     1    13    12    1
     2    14    12    1
     3    26    25    1
     4    12     3    1
     5    27    25    1
     6    33    31    1
     7    32    31   ar
     8    32    28   ar
     9    25    17    1
    10    31    30   ar
    11    41    39    1
    12    20    16    1
    13    20    21    1
    14    17    16   ar
    15    17    18   ar
    16    30    29   ar
    17    30    39    1
    18    28    18    1
    19    28    29   ar
    20    16    15   ar
    21    18    19   ar
    22    40    39    1
    23     3     2   ar
    24     3     4   ar
    25     7     2    1
    26     7     8    1
    27     9     8    1
    28    29    34    1
    29    11     8    1
    30    15    19   ar
    31    15     4    1
    32    34    35    1
    33     2     1   ar
    34     8    10    1
    35     4     5   ar
    36    22    21    1
    37    21    24    1
    38    21    23    1
    39     1     5   ar
    40     1     6    1
    41    35    36    1
    42    35    38    1
    43    35    37    1
