@<TRIPOS>MOLECULE
mol_data/opt/m06hf/geoms/mol2/5li.out
 16 16 0 0 0
SMALL
GASTEIGER

@<TRIPOS>ATOM
      1 C          -2.2504   -1.6424    0.0181 C.ar    1  LIG1        0.0176
      2 C          -0.8900   -1.6535   -0.0003 C.ar    1  LIG1        0.1300
      3 C          -0.2937   -0.3378    0.0279 C.ar    1  LIG1       -0.0018
      4 C          -1.2470    0.6239    0.0669 C.ar    1  LIG1       -0.0178
      5 S          -2.8491   -0.0201    0.0705 S.2     1  LIG1       -0.1011
      6 H          -2.9335   -2.4740    0.0044 H       1  LIG1        0.0730
      7 H          -1.0951    1.6915    0.0941 H       1  LIG1        0.0697
      8 O          -0.0631   -2.7258   -0.0406 O.3     1  LIG1       -0.4943
      9 C          -0.6929   -3.9919   -0.0669 C.3     1  LIG1        0.0788
     10 H           0.1037   -4.7301   -0.0977 H       1  LIG1        0.0660
     11 H          -1.2990   -4.1324    0.8324 H       1  LIG1        0.0660
     12 H          -1.3228   -4.0835   -0.9562 H       1  LIG1        0.0660
     13 C           1.2023   -0.1424    0.0133 C.3     1  LIG1       -0.0357
     14 H           1.4466    0.9184    0.0393 H       1  LIG1        0.0279
     15 H           1.6258   -0.5886   -0.8874 H       1  LIG1        0.0279
     16 H           1.6493   -0.6372    0.8766 H       1  LIG1        0.0279
@<TRIPOS>BOND
     1    12     9    1
     2    15    13    1
     3    10     9    1
     4     9     8    1
     5     9    11    1
     6     8     2    1
     7     2     1   ar
     8     2     3   ar
     9     6     1    1
    10    13     3    1
    11    13    14    1
    12    13    16    1
    13     1     5   ar
    14     3     4   ar
    15     4     5   ar
    16     4     7    1
