@<TRIPOS>MOLECULE
mol_data/opt/m06hf/geoms/mol2/5li5li-5li5li.out
 58 61 0 0 0
SMALL
GASTEIGER

@<TRIPOS>ATOM
      1 C          -0.4172   -1.6744   -2.1872 C.ar    1  LIG1        0.0183
      2 C          -1.5733   -1.4809   -1.4965 C.ar    1  LIG1        0.1306
      3 C          -1.6451   -0.2090   -0.8192 C.ar    1  LIG1        0.0066
      4 C          -0.5179    0.5277   -1.0388 C.ar    1  LIG1        0.0359
      5 S           0.6285   -0.3065   -2.0449 S.2     1  LIG1       -0.0920
      6 H          -0.1090   -2.5340   -2.7575 H       1  LIG1        0.0730
      7 O          -2.6204   -2.3321   -1.3707 O.3     1  LIG1       -0.4943
      8 C          -2.4929   -3.5669   -2.0476 C.3     1  LIG1        0.0788
      9 H          -3.4090   -4.1184   -1.8553 H       1  LIG1        0.0660
     10 H          -2.3747   -3.4007   -3.1217 H       1  LIG1        0.0660
     11 H          -1.6335   -4.1235   -1.6635 H       1  LIG1        0.0660
     12 C          -2.8419    0.1650    0.0216 C.3     1  LIG1       -0.0351
     13 H          -2.5881    0.9648    0.7155 H       1  LIG1        0.0279
     14 H          -3.1719   -0.7125    0.5776 H       1  LIG1        0.0279
     15 H          -3.6666    0.4931   -0.6138 H       1  LIG1        0.0279
     16 C          -0.2113    1.8855   -0.5755 C.ar    1  LIG1        0.0687
     17 C           0.9919    2.3480   -0.1210 C.ar    1  LIG1        0.1388
     18 C           1.0088    3.7462    0.2051 C.ar    1  LIG1        0.0072
     19 C          -0.2061    4.3210   -0.0323 C.ar    1  LIG1        0.0365
     20 S          -1.3600    3.1754   -0.6488 S.2     1  LIG1       -0.0831
     21 O           2.1060    1.5718    0.0274 O.3     1  LIG1       -0.4937
     22 C           2.0351    0.6728    1.1360 C.3     1  LIG1        0.0789
     23 H           2.9770    0.1300    1.1479 H       1  LIG1        0.0660
     24 H           1.9102    1.2363    2.0637 H       1  LIG1        0.0660
     25 H           1.2032   -0.0217    1.0079 H       1  LIG1        0.0660
     26 C           2.2337    4.4344    0.7472 C.3     1  LIG1       -0.0351
     27 H           1.9377    5.2621    1.3922 H       1  LIG1        0.0279
     28 H           2.8371    4.8195   -0.0761 H       1  LIG1        0.0279
     29 H           2.8339    3.7229    1.3135 H       1  LIG1        0.0279
     30 C          -0.6104    5.7162    0.1681 C.ar    1  LIG1        0.0687
     31 C           0.0084    6.8460   -0.2927 C.ar    1  LIG1        0.1388
     32 C          -0.7258    8.0592   -0.0306 C.ar    1  LIG1        0.0072
     33 C          -1.8759    7.8009    0.6651 C.ar    1  LIG1        0.0365
     34 S          -2.0912    6.1067    0.9723 S.2     1  LIG1       -0.0831
     35 O           1.1624    6.7987   -1.0171 O.3     1  LIG1       -0.4937
     36 C           2.2554    7.5579   -0.5027 C.3     1  LIG1        0.0789
     37 H           3.1498    7.1577   -0.9749 H       1  LIG1        0.0660
     38 H           2.1536    8.6127   -0.7558 H       1  LIG1        0.0660
     39 H           2.3225    7.4452    0.5810 H       1  LIG1        0.0660
     40 C          -0.3226    9.4059   -0.5899 C.3     1  LIG1       -0.0351
     41 H           0.3671    9.9327    0.0733 H       1  LIG1        0.0279
     42 H          -1.2063   10.0270   -0.7315 H       1  LIG1        0.0279
     43 H           0.1594    9.2553   -1.5570 H       1  LIG1        0.0279
     44 C          -2.8743    8.7542    1.1595 C.ar    1  LIG1        0.0681
     45 C          -4.2250    8.5600    1.2376 C.ar    1  LIG1        0.1382
     46 C          -4.9469    9.6451    1.8454 C.ar    1  LIG1       -0.0011
     47 C          -4.0981   10.6357    2.2243 C.ar    1  LIG1       -0.0172
     48 S          -2.4501   10.2808    1.8586 S.2     1  LIG1       -0.0921
     49 H          -4.3522   11.5696    2.7008 H       1  LIG1        0.0697
     50 O          -4.8609    7.4291    0.8122 O.3     1  LIG1       -0.4937
     51 C          -5.0253    7.3564   -0.6063 C.3     1  LIG1        0.0789
     52 H          -5.5377    6.4184   -0.8042 H       1  LIG1        0.0660
     53 H          -5.6272    8.1985   -0.9544 H       1  LIG1        0.0660
     54 H          -4.0524    7.3639   -1.0999 H       1  LIG1        0.0660
     55 C          -6.4452    9.6151    2.0266 C.3     1  LIG1       -0.0357
     56 H          -6.7737   10.4779    2.6041 H       1  LIG1        0.0279
     57 H          -6.7333    8.7012    2.5462 H       1  LIG1        0.0279
     58 H          -6.9478    9.6276    1.0581 H       1  LIG1        0.0279
@<TRIPOS>BOND
     1    10     8    1
     2     6     1    1
     3     1     5   ar
     4     1     2   ar
     5     8     9    1
     6     8    11    1
     7     8     7    1
     8     5     4   ar
     9    43    40    1
    10     2     7    1
    11     2     3   ar
    12    54    51    1
    13     4     3   ar
    14     4    16    1
    15    35    36    1
    16    35    31    1
    17    37    36    1
    18    53    51    1
    19     3    12    1
    20    52    51    1
    21    38    36    1
    22    42    40    1
    23    20    16   ar
    24    20    19   ar
    25    15    12    1
    26    51    50    1
    27    40    32    1
    28    40    41    1
    29    16    17   ar
    30    36    39    1
    31    31    32   ar
    32    31    30   ar
    33    17    21    1
    34    17    18   ar
    35    28    26    1
    36    19    30    1
    37    19    18   ar
    38    32    33   ar
    39    12    14    1
    40    12    13    1
    41    21    22    1
    42    30    34   ar
    43    18    26    1
    44    33    34   ar
    45    33    44    1
    46    26    29    1
    47    26    27    1
    48    50    45    1
    49    25    22    1
    50    58    55    1
    51    22    23    1
    52    22    24    1
    53    44    45   ar
    54    44    48   ar
    55    45    46   ar
    56    46    55    1
    57    46    47   ar
    58    48    47   ar
    59    55    57    1
    60    55    56    1
    61    47    49    1
