@<TRIPOS>MOLECULE
mol_data/opt/m06hf/geoms/mol2/5li5li.out
 30 31 0 0 0
SMALL
GASTEIGER

@<TRIPOS>ATOM
      1 C          -1.9993   -1.8800    0.8468 C.ar    1  LIG1        0.0183
      2 C          -0.9164   -1.9398    0.0247 C.ar    1  LIG1        0.1306
      3 C          -0.4595   -0.6513   -0.4423 C.ar    1  LIG1        0.0066
      4 C          -1.2294    0.3508    0.0677 C.ar    1  LIG1        0.0359
      5 S          -2.4936   -0.2424    1.1007 S.2     1  LIG1       -0.0920
      6 H          -2.5389   -2.6872    1.3114 H       1  LIG1        0.0730
      7 O          -0.2580   -3.0444   -0.3995 O.3     1  LIG1       -0.4943
      8 C          -0.7911   -4.2825    0.0277 C.3     1  LIG1        0.0788
      9 H          -0.1652   -5.0537   -0.4125 H       1  LIG1        0.0660
     10 H          -0.7595   -4.3545    1.1184 H       1  LIG1        0.0660
     11 H          -1.8216   -4.3916   -0.3208 H       1  LIG1        0.0660
     12 C           0.7041   -0.5005   -1.3891 C.3     1  LIG1       -0.0351
     13 H           1.6477   -0.5224   -0.8406 H       1  LIG1        0.0279
     14 H           0.6335    0.4525   -1.9114 H       1  LIG1        0.0279
     15 H           0.6931   -1.3245   -2.1019 H       1  LIG1        0.0279
     16 C          -1.0479    1.7891   -0.1425 C.ar    1  LIG1        0.0681
     17 C           0.1262    2.4843   -0.0691 C.ar    1  LIG1        0.1382
     18 C          -0.0029    3.8886   -0.3597 C.ar    1  LIG1       -0.0011
     19 C          -1.2923    4.2087   -0.6405 C.ar    1  LIG1       -0.0172
     20 S          -2.3532    2.8506   -0.5625 S.2     1  LIG1       -0.0921
     21 H          -1.6842    5.1827   -0.8870 H       1  LIG1        0.0697
     22 O           1.3405    1.9491    0.2487 O.3     1  LIG1       -0.4937
     23 C           1.4448    1.4872    1.5970 C.3     1  LIG1        0.0789
     24 H           2.4766    1.1701    1.7277 H       1  LIG1        0.0660
     25 H           1.2102    2.3001    2.2871 H       1  LIG1        0.0660
     26 H           0.7692    0.6467    1.7656 H       1  LIG1        0.0660
     27 C           1.1808    4.8245   -0.3302 C.3     1  LIG1       -0.0357
     28 H           0.8696    5.8370   -0.5825 H       1  LIG1        0.0279
     29 H           1.9358    4.4903   -1.0421 H       1  LIG1        0.0279
     30 H           1.6324    4.8266    0.6631 H       1  LIG1        0.0279
@<TRIPOS>BOND
     1    15    12    1
     2    14    12    1
     3    12    13    1
     4    12     3    1
     5    29    27    1
     6    21    19    1
     7    19    20   ar
     8    19    18   ar
     9    28    27    1
    10    20    16   ar
    11     3     2   ar
    12     3     4   ar
    13     9     8    1
    14     7     2    1
    15     7     8    1
    16    18    27    1
    17    18    17   ar
    18    27    30    1
    19    11     8    1
    20    16    17   ar
    21    16     4    1
    22    17    22    1
    23     2     1   ar
    24     8    10    1
    25     4     5   ar
    26    22    23    1
    27     1     5   ar
    28     1     6    1
    29    23    24    1
    30    23    26    1
    31    23    25    1
