@<TRIPOS>MOLECULE
mol_data/opt/m06hf/geoms/mol2/5li5li-.out
 30 31 0 0 0
SMALL
GASTEIGER

@<TRIPOS>ATOM
      1 C          -2.0144   -1.8802    0.7995 C.ar    1  LIG1        0.0183
      2 C          -0.9190   -1.9390   -0.0060 C.ar    1  LIG1        0.1306
      3 C          -0.4536   -0.6497   -0.4623 C.ar    1  LIG1        0.0066
      4 C          -1.2302    0.3518    0.0385 C.ar    1  LIG1        0.0359
      5 S          -2.5108   -0.2428    1.0502 S.2     1  LIG1       -0.0920
      6 H          -2.5619   -2.6881    1.2535 H       1  LIG1        0.0730
      7 O          -0.2553   -3.0431   -0.4230 O.3     1  LIG1       -0.4943
      8 C          -0.7962   -4.2818   -0.0075 C.3     1  LIG1        0.0788
      9 H          -0.1644   -5.0525   -0.4401 H       1  LIG1        0.0660
     10 H          -0.7815   -4.3568    1.0834 H       1  LIG1        0.0660
     11 H          -1.8213   -4.3888   -0.3721 H       1  LIG1        0.0660
     12 C           0.7246   -0.4975   -1.3907 C.3     1  LIG1       -0.0351
     13 H           0.6629    0.4570   -1.9114 H       1  LIG1        0.0279
     14 H           0.7237   -1.3196   -2.1058 H       1  LIG1        0.0279
     15 H           1.6596   -0.5219   -0.8278 H       1  LIG1        0.0279
     16 C          -1.0440    1.7905   -0.1649 C.ar    1  LIG1        0.0681
     17 C           0.1294    2.4843   -0.0716 C.ar    1  LIG1        0.1382
     18 C           0.0063    3.8894   -0.3602 C.ar    1  LIG1       -0.0011
     19 C          -1.2783    4.2118   -0.6600 C.ar    1  LIG1       -0.0172
     20 S          -2.3417    2.8546   -0.6021 S.2     1  LIG1       -0.0921
     21 H          -1.6654    5.1868   -0.9099 H       1  LIG1        0.0697
     22 O           1.3382    1.9469    0.2634 O.3     1  LIG1       -0.4937
     23 C           1.4213    1.4811    1.6119 C.3     1  LIG1        0.0789
     24 H           2.4506    1.1627    1.7576 H       1  LIG1        0.0660
     25 H           1.1768    2.2924    2.3005 H       1  LIG1        0.0660
     26 H           0.7423    0.6409    1.7677 H       1  LIG1        0.0660
     27 C           1.1904    4.8240   -0.3099 C.3     1  LIG1       -0.0357
     28 H           0.8841    5.8375   -0.5644 H       1  LIG1        0.0279
     29 H           1.9560    4.4909   -1.0109 H       1  LIG1        0.0279
     30 H           1.6264    4.8231    0.6902 H       1  LIG1        0.0279
@<TRIPOS>BOND
     1    14    12    1
     2    13    12    1
     3    12    15    1
     4    12     3    1
     5    29    27    1
     6    21    19    1
     7    19    20   ar
     8    19    18   ar
     9    20    16   ar
    10    28    27    1
    11     3     2   ar
    12     3     4   ar
    13     9     8    1
    14     7     8    1
    15     7     2    1
    16    11     8    1
    17    18    27    1
    18    18    17   ar
    19    27    30    1
    20    16    17   ar
    21    16     4    1
    22    17    22    1
    23     8    10    1
    24     2     1   ar
    25     4     5   ar
    26    22    23    1
    27     1     5   ar
    28     1     6    1
    29    23    24    1
    30    23    26    1
    31    23    25    1
