@<TRIPOS>MOLECULE
mol_data/opt/m06hf/geoms/mol2/5li5li5li5li-.out
 58 61 0 0 0
SMALL
GASTEIGER

@<TRIPOS>ATOM
      1 C          -0.4569   -1.6950   -2.1684 C.ar    1  LIG1        0.0183
      2 C          -1.6286   -1.4806   -1.5111 C.ar    1  LIG1        0.1306
      3 C          -1.6985   -0.2058   -0.8391 C.ar    1  LIG1        0.0066
      4 C          -0.5537    0.5117   -1.0285 C.ar    1  LIG1        0.0359
      5 S           0.6068   -0.3441   -1.9998 S.2     1  LIG1       -0.0920
      6 H          -0.1469   -2.5612   -2.7277 H       1  LIG1        0.0730
      7 O          -2.6928   -2.3141   -1.4129 O.3     1  LIG1       -0.4943
      8 C          -2.5666   -3.5528   -2.0829 C.3     1  LIG1        0.0788
      9 H          -3.4966   -4.0888   -1.9151 H       1  LIG1        0.0660
     10 H          -2.4155   -3.3917   -3.1537 H       1  LIG1        0.0660
     11 H          -1.7276   -4.1222   -1.6733 H       1  LIG1        0.0660
     12 C          -2.9123    0.1902   -0.0333 C.3     1  LIG1       -0.0351
     13 H          -3.7133    0.5299   -0.6926 H       1  LIG1        0.0279
     14 H          -2.6650    0.9876    0.6655 H       1  LIG1        0.0279
     15 H          -3.2722   -0.6802    0.5152 H       1  LIG1        0.0279
     16 C          -0.2380    1.8657   -0.5600 C.ar    1  LIG1        0.0687
     17 C           0.9595    2.3097   -0.0730 C.ar    1  LIG1        0.1388
     18 C           0.9902    3.7084    0.2501 C.ar    1  LIG1        0.0072
     19 C          -0.2080    4.3022   -0.0226 C.ar    1  LIG1        0.0365
     20 S          -1.3628    3.1739   -0.6685 S.2     1  LIG1       -0.0831
     21 O           2.0561    1.5159    0.1084 O.3     1  LIG1       -0.4937
     22 C           1.9395    0.6212    1.2167 C.3     1  LIG1        0.0789
     23 H           2.8718    0.0634    1.2564 H       1  LIG1        0.0660
     24 H           1.7977    1.1893    2.1392 H       1  LIG1        0.0660
     25 H           1.1004   -0.0600    1.0668 H       1  LIG1        0.0660
     26 C           2.2106    4.3780    0.8247 C.3     1  LIG1       -0.0351
     27 H           1.9102    5.2119    1.4596 H       1  LIG1        0.0279
     28 H           2.8428    4.7511    0.0179 H       1  LIG1        0.0279
     29 H           2.7830    3.6582    1.4090 H       1  LIG1        0.0279
     30 C          -0.5948    5.7044    0.1631 C.ar    1  LIG1        0.0687
     31 C           0.0551    6.8227   -0.2827 C.ar    1  LIG1        0.1388
     32 C          -0.6664    8.0483   -0.0443 C.ar    1  LIG1        0.0072
     33 C          -1.8396    7.8108    0.6193 C.ar    1  LIG1        0.0365
     34 S          -2.0911    6.1212    0.9244 S.2     1  LIG1       -0.0831
     35 O           1.2280    6.7546   -0.9744 O.3     1  LIG1       -0.4937
     36 C           2.3183    7.4974   -0.4313 C.3     1  LIG1        0.0789
     37 H           2.2407    8.5530   -0.6894 H       1  LIG1        0.0660
     38 H           2.3535    7.3863    0.6540 H       1  LIG1        0.0660
     39 H           3.2190    7.0817   -0.8777 H       1  LIG1        0.0660
     40 C          -0.2257    9.3868   -0.5953 C.3     1  LIG1       -0.0351
     41 H          -1.0948   10.0218   -0.7629 H       1  LIG1        0.0279
     42 H           0.2805    9.2257   -1.5482 H       1  LIG1        0.0279
     43 H           0.4538    9.9041    0.0856 H       1  LIG1        0.0279
     44 C          -2.8357    8.7817    1.0832 C.ar    1  LIG1        0.0681
     45 C          -4.1911    8.6097    1.1235 C.ar    1  LIG1        0.1382
     46 C          -4.9120    9.7081    1.7082 C.ar    1  LIG1       -0.0011
     47 C          -4.0581   10.6857    2.1086 C.ar    1  LIG1       -0.0172
     48 S          -2.4064   10.3030    1.7905 S.2     1  LIG1       -0.0921
     49 H          -4.3102   11.6250    2.5756 H       1  LIG1        0.0697
     50 O          -4.8331    7.4881    0.6831 O.3     1  LIG1       -0.4937
     51 C          -4.9590    7.4144   -0.7394 C.3     1  LIG1        0.0789
     52 H          -5.4809    6.4843   -0.9495 H       1  LIG1        0.0660
     53 H          -5.5372    8.2652   -1.1060 H       1  LIG1        0.0660
     54 H          -3.9728    7.4048   -1.2056 H       1  LIG1        0.0660
     55 C          -6.4151    9.7031    1.8470 C.3     1  LIG1       -0.0357
     56 H          -6.7455   10.5723    2.4135 H       1  LIG1        0.0279
     57 H          -6.7328    8.7951    2.3597 H       1  LIG1        0.0279
     58 H          -6.8898    9.7219    0.8647 H       1  LIG1        0.0279
@<TRIPOS>BOND
     1    10     8    1
     2     6     1    1
     3     1     5   ar
     4     1     2   ar
     5     8     9    1
     6     8    11    1
     7     8     7    1
     8     5     4   ar
     9    42    40    1
    10     2     7    1
    11     2     3   ar
    12    54    51    1
    13    53    51    1
    14     4     3   ar
    15     4    16    1
    16    35    36    1
    17    35    31    1
    18    52    51    1
    19    39    36    1
    20     3    12    1
    21    41    40    1
    22    51    50    1
    23    13    12    1
    24    37    36    1
    25    20    16   ar
    26    20    19   ar
    27    40    32    1
    28    40    43    1
    29    16    17   ar
    30    36    38    1
    31    31    32   ar
    32    31    30   ar
    33    17    21    1
    34    17    18   ar
    35    32    33   ar
    36    12    15    1
    37    12    14    1
    38    19    30    1
    39    19    18   ar
    40    28    26    1
    41    21    22    1
    42    30    34   ar
    43    18    26    1
    44    33    34   ar
    45    33    44    1
    46    50    45    1
    47    26    29    1
    48    26    27    1
    49    58    55    1
    50    25    22    1
    51    44    45   ar
    52    44    48   ar
    53    45    46   ar
    54    22    23    1
    55    22    24    1
    56    46    55    1
    57    46    47   ar
    58    48    47   ar
    59    55    57    1
    60    55    56    1
    61    47    49    1
