@<TRIPOS>MOLECULE
mol_data/opt/m06hf/geoms/mol2/5li5li-5li-5li-.out
 58 61 0 0 0
SMALL
GASTEIGER

@<TRIPOS>ATOM
      1 C           1.0293   -2.0159   -1.2096 C.ar    1  LIG1        0.0183
      2 C          -0.1858   -1.7350   -1.7521 C.ar    1  LIG1        0.1306
      3 C          -0.6970   -0.4330   -1.4001 C.ar    1  LIG1        0.0066
      4 C           0.1765    0.2366   -0.5908 C.ar    1  LIG1        0.0359
      5 S           1.6020   -0.7033   -0.2453 S.2     1  LIG1       -0.0920
      6 H           1.6152   -2.9149   -1.3007 H       1  LIG1        0.0730
      7 O          -0.9438   -2.5301   -2.5472 O.3     1  LIG1       -0.4943
      8 C          -0.4038   -3.8041   -2.8366 C.3     1  LIG1        0.0788
      9 H          -1.1262   -4.3067   -3.4735 H       1  LIG1        0.0660
     10 H           0.5499   -3.7013   -3.3616 H       1  LIG1        0.0660
     11 H          -0.2580   -4.3730   -1.9142 H       1  LIG1        0.0660
     12 C          -2.0440    0.0389   -1.8967 C.3     1  LIG1       -0.0351
     13 H          -2.5383    0.6534   -1.1448 H       1  LIG1        0.0279
     14 H          -2.6594   -0.8328   -2.1155 H       1  LIG1        0.0279
     15 H          -1.9377    0.6231   -2.8131 H       1  LIG1        0.0279
     16 C           0.0552    1.5934   -0.0506 C.ar    1  LIG1        0.0687
     17 C           0.6767    2.0834    1.0638 C.ar    1  LIG1        0.1388
     18 C           0.4370    3.4723    1.3258 C.ar    1  LIG1        0.0072
     19 C          -0.3738    4.0199    0.3680 C.ar    1  LIG1        0.0365
     20 S          -0.8340    2.8528   -0.8407 S.2     1  LIG1       -0.0831
     21 O           1.4981    1.3308    1.8562 O.3     1  LIG1       -0.4937
     22 C           0.8018    0.6219    2.8835 C.3     1  LIG1        0.0789
     23 H           1.5532    0.0486    3.4211 H       1  LIG1        0.0660
     24 H           0.3113    1.3287    3.5564 H       1  LIG1        0.0660
     25 H           0.0628   -0.0469    2.4397 H       1  LIG1        0.0660
     26 C           1.0622    4.1657    2.5144 C.3     1  LIG1       -0.0351
     27 H           0.3443    4.2779    3.3299 H       1  LIG1        0.0279
     28 H           1.4304    5.1535    2.2371 H       1  LIG1        0.0279
     29 H           1.8957    3.5552    2.8627 H       1  LIG1        0.0279
     30 C          -0.9100    5.3797    0.3009 C.ar    1  LIG1        0.0687
     31 C          -1.3585    6.0320   -0.8144 C.ar    1  LIG1        0.1388
     32 C          -1.8997    7.3378   -0.5708 C.ar    1  LIG1        0.0072
     33 C          -1.8546    7.6454    0.7581 C.ar    1  LIG1        0.0365
     34 S          -1.1708    6.3606    1.7038 S.2     1  LIG1       -0.0831
     35 O          -1.3076    5.4952   -2.0708 O.3     1  LIG1       -0.4937
     36 C          -0.0312    5.6459   -2.7000 C.3     1  LIG1        0.0789
     37 H          -0.1200    5.1882   -3.6819 H       1  LIG1        0.0660
     38 H           0.2143    6.7056   -2.7947 H       1  LIG1        0.0660
     39 H           0.7378    5.1378   -2.1162 H       1  LIG1        0.0660
     40 C          -2.4466    8.2122   -1.6686 C.3     1  LIG1       -0.0351
     41 H          -2.3394    9.2619   -1.3932 H       1  LIG1        0.0279
     42 H          -3.5037    7.9899   -1.8193 H       1  LIG1        0.0279
     43 H          -1.9153    8.0207   -2.6002 H       1  LIG1        0.0279
     44 C          -2.3012    8.8744    1.4196 C.ar    1  LIG1        0.0681
     45 C          -3.5035    9.5126    1.2792 C.ar    1  LIG1        0.1382
     46 C          -3.6485   10.6669    2.1389 C.ar    1  LIG1       -0.0011
     47 C          -2.5294   10.8540    2.8875 C.ar    1  LIG1       -0.0172
     48 S          -1.3125    9.6769    2.5933 S.2     1  LIG1       -0.0921
     49 H          -2.3666   11.6264    3.6226 H       1  LIG1        0.0697
     50 O          -4.4771    9.0190    0.4643 O.3     1  LIG1       -0.4937
     51 C          -5.0927    9.9354   -0.4364 C.3     1  LIG1        0.0789
     52 H          -5.9064   10.4724    0.0504 H       1  LIG1        0.0660
     53 H          -4.3582   10.6444   -0.8245 H       1  LIG1        0.0660
     54 H          -5.4956    9.3375   -1.2512 H       1  LIG1        0.0660
     55 C          -4.9000   11.5081    2.2642 C.3     1  LIG1       -0.0357
     56 H          -4.8280   12.1351    3.1521 H       1  LIG1        0.0279
     57 H          -5.7742   10.8629    2.3642 H       1  LIG1        0.0279
     58 H          -5.0369   12.1548    1.3960 H       1  LIG1        0.0279
@<TRIPOS>BOND
     1    37    36    1
     2     9     8    1
     3    10     8    1
     4     8     7    1
     5     8    11    1
     6    15    12    1
     7    38    36    1
     8    36    39    1
     9    36    35    1
    10    43    40    1
    11     7     2    1
    12    14    12    1
    13    35    31    1
    14    12     3    1
    15    12    13    1
    16    42    40    1
    17     2     3   ar
    18     2     1   ar
    19    40    41    1
    20    40    32    1
    21     3     4   ar
    22     6     1    1
    23    54    51    1
    24     1     5   ar
    25    20    16   ar
    26    20    19   ar
    27    53    51    1
    28    31    32   ar
    29    31    30   ar
    30     4     5   ar
    31     4    16    1
    32    32    33   ar
    33    51    52    1
    34    51    50    1
    35    16    17   ar
    36    30    19    1
    37    30    34   ar
    38    19    18   ar
    39    50    45    1
    40    33    44    1
    41    33    34   ar
    42    17    18   ar
    43    17    21    1
    44    45    44   ar
    45    45    46   ar
    46    18    26    1
    47    58    55    1
    48    44    48   ar
    49    21    22    1
    50    46    55    1
    51    46    47   ar
    52    28    26    1
    53    55    57    1
    54    55    56    1
    55    25    22    1
    56    26    29    1
    57    26    27    1
    58    48    47   ar
    59    22    23    1
    60    22    24    1
    61    47    49    1
