@<TRIPOS>MOLECULE
mol_data/opt/m06hf/geoms/mol2/5li5li5li.out
 44 46 0 0 0
SMALL
GASTEIGER

@<TRIPOS>ATOM
      1 C           0.1953   -1.9551   -1.3305 C.ar    1  LIG1        0.0183
      2 C          -1.0263   -1.6542   -0.8159 C.ar    1  LIG1        0.1306
      3 C          -1.1311   -0.3092   -0.3053 C.ar    1  LIG1        0.0066
      4 C           0.0428    0.3731   -0.4642 C.ar    1  LIG1        0.0359
      5 S           1.2731   -0.6112   -1.2160 S.2     1  LIG1       -0.0920
      6 H           0.5352   -2.8828   -1.7587 H       1  LIG1        0.0730
      7 O          -2.1106   -2.4641   -0.7302 O.3     1  LIG1       -0.4943
      8 C          -1.9368   -3.7769   -1.2253 C.3     1  LIG1        0.0788
      9 H          -2.8828   -4.2898   -1.0760 H       1  LIG1        0.0660
     10 H          -1.6893   -3.7512   -2.2899 H       1  LIG1        0.0660
     11 H          -1.1426   -4.2876   -0.6739 H       1  LIG1        0.0660
     12 C          -2.4142    0.1920    0.3171 C.3     1  LIG1       -0.0351
     13 H          -2.2075    0.7648    1.2218 H       1  LIG1        0.0279
     14 H          -3.0358   -0.6661    0.5679 H       1  LIG1        0.0279
     15 H          -2.9650    0.8268   -0.3804 H       1  LIG1        0.0279
     16 C           0.3338    1.7678   -0.1279 C.ar    1  LIG1        0.0687
     17 C           1.5693    2.3473   -0.0605 C.ar    1  LIG1        0.1388
     18 C           1.5637    3.7552    0.2070 C.ar    1  LIG1        0.0072
     19 C           0.2853    4.2252    0.3429 C.ar    1  LIG1        0.0365
     20 S          -0.8969    2.9591    0.1427 S.2     1  LIG1       -0.0831
     21 O           2.7303    1.6540   -0.2655 O.3     1  LIG1       -0.4937
     22 C           3.2798    1.1124    0.9389 C.3     1  LIG1        0.0789
     23 H           4.1673    0.5570    0.6464 H       1  LIG1        0.0660
     24 H           3.5467    1.9208    1.6231 H       1  LIG1        0.0660
     25 H           2.5561    0.4463    1.4109 H       1  LIG1        0.0660
     26 C           2.8516    4.5434    0.2744 C.3     1  LIG1       -0.0351
     27 H           2.7715    5.4652   -0.3026 H       1  LIG1        0.0279
     28 H           3.6477    3.9290   -0.1463 H       1  LIG1        0.0279
     29 H           3.1080    4.7985    1.3052 H       1  LIG1        0.0279
     30 C          -0.1538    5.5853    0.6554 C.ar    1  LIG1        0.0681
     31 C          -1.4218    6.0839    0.5346 C.ar    1  LIG1        0.1382
     32 C          -1.5780    7.4447    0.9698 C.ar    1  LIG1       -0.0011
     33 C          -0.3973    7.9403    1.4212 C.ar    1  LIG1       -0.0172
     34 S           0.8900    6.7995    1.3250 S.2     1  LIG1       -0.0921
     35 H          -0.2066    8.9273    1.8122 H       1  LIG1        0.0697
     36 O          -2.4710    5.3375    0.0756 O.3     1  LIG1       -0.4937
     37 C          -2.6833    5.4569   -1.3339 C.3     1  LIG1        0.0789
     38 H          -3.4959    4.7774   -1.5781 H       1  LIG1        0.0660
     39 H          -2.9599    6.4825   -1.5853 H       1  LIG1        0.0660
     40 H          -1.7784    5.1709   -1.8722 H       1  LIG1        0.0660
     41 C          -2.9039    8.1675    0.9266 C.3     1  LIG1       -0.0357
     42 H          -2.9102    8.9884    1.6421 H       1  LIG1        0.0279
     43 H          -3.7040    7.4687    1.1709 H       1  LIG1        0.0279
     44 H          -3.0913    8.5737   -0.0691 H       1  LIG1        0.0279
@<TRIPOS>BOND
     1    10     8    1
     2    40    37    1
     3     6     1    1
     4    39    37    1
     5    38    37    1
     6    37    36    1
     7     1     5   ar
     8     1     2   ar
     9     8     9    1
    10     8     7    1
    11     8    11    1
    12     5     4   ar
    13     2     7    1
    14     2     3   ar
    15     4     3   ar
    16     4    16    1
    17    15    12    1
    18     3    12    1
    19    27    26    1
    20    21    17    1
    21    21    22    1
    22    28    26    1
    23    16    17   ar
    24    16    20   ar
    25    44    41    1
    26    17    18   ar
    27    36    31    1
    28    20    19   ar
    29    18    26    1
    30    18    19   ar
    31    26    29    1
    32    12    14    1
    33    12    13    1
    34    19    30    1
    35    31    30   ar
    36    31    32   ar
    37    23    22    1
    38    30    34   ar
    39    41    32    1
    40    41    43    1
    41    41    42    1
    42    22    25    1
    43    22    24    1
    44    32    33   ar
    45    34    33   ar
    46    33    35    1
