@<TRIPOS>MOLECULE
mol_data/opt/m06hf/geoms/mol2/5li5li-5li.out
 44 46 0 0 0
SMALL
GASTEIGER

@<TRIPOS>ATOM
      1 C          -0.0026   -1.9565   -1.3950 C.ar    1  LIG1        0.0183
      2 C          -1.2025   -1.6174   -0.8537 C.ar    1  LIG1        0.1306
      3 C          -1.2477   -0.2761   -0.3248 C.ar    1  LIG1        0.0066
      4 C          -0.0523    0.3643   -0.4976 C.ar    1  LIG1        0.0359
      5 S           1.1263   -0.6551   -1.2845 S.2     1  LIG1       -0.0920
      6 H           0.2945   -2.8906   -1.8409 H       1  LIG1        0.0730
      7 O          -2.3144   -2.3876   -0.7574 O.3     1  LIG1       -0.4943
      8 C          -2.1988   -3.6995   -1.2717 C.3     1  LIG1        0.0788
      9 H          -3.1604   -4.1789   -1.1108 H       1  LIG1        0.0660
     10 H          -1.9702   -3.6691   -2.3404 H       1  LIG1        0.0660
     11 H          -1.4142   -4.2463   -0.7417 H       1  LIG1        0.0660
     12 C          -2.4995    0.2641    0.3279 C.3     1  LIG1       -0.0351
     13 H          -2.2550    0.8172    1.2355 H       1  LIG1        0.0279
     14 H          -3.1479   -0.5736    0.5799 H       1  LIG1        0.0279
     15 H          -3.0391    0.9278   -0.3512 H       1  LIG1        0.0279
     16 C           0.2966    1.7428   -0.1498 C.ar    1  LIG1        0.0687
     17 C           1.5539    2.2753   -0.0988 C.ar    1  LIG1        0.1388
     18 C           1.6057    3.6789    0.1861 C.ar    1  LIG1        0.0072
     19 C           0.3483    4.1940    0.3519 C.ar    1  LIG1        0.0365
     20 S          -0.8837    2.9752    0.1587 S.2     1  LIG1       -0.0831
     21 O           2.6842    1.5422   -0.3342 O.3     1  LIG1       -0.4937
     22 C           3.2354    0.9652    0.8528 C.3     1  LIG1        0.0789
     23 H           4.0960    0.3812    0.5367 H       1  LIG1        0.0660
     24 H           3.5448    1.7542    1.5416 H       1  LIG1        0.0660
     25 H           2.4963    0.3203    1.3303 H       1  LIG1        0.0660
     26 C           2.9230    4.4179    0.2386 C.3     1  LIG1       -0.0351
     27 H           2.8666    5.3495   -0.3254 H       1  LIG1        0.0279
     28 H           3.6878    3.7800   -0.2047 H       1  LIG1        0.0279
     29 H           3.2078    4.6499    1.2674 H       1  LIG1        0.0279
     30 C          -0.0339    5.5652    0.6893 C.ar    1  LIG1        0.0681
     31 C          -1.2845    6.1120    0.5986 C.ar    1  LIG1        0.1382
     32 C          -1.3819    7.4719    1.0535 C.ar    1  LIG1       -0.0011
     33 C          -0.1754    7.9175    1.4885 C.ar    1  LIG1       -0.0172
     34 S           1.0665    6.7312    1.3540 S.2     1  LIG1       -0.0921
     35 H           0.0591    8.8916    1.8880 H       1  LIG1        0.0697
     36 O          -2.3691    5.4110    0.1504 O.3     1  LIG1       -0.4937
     37 C          -2.6026    5.5563   -1.2533 C.3     1  LIG1        0.0789
     38 H          -3.4443    4.9106   -1.4905 H       1  LIG1        0.0660
     39 H          -2.8455    6.5947   -1.4868 H       1  LIG1        0.0660
     40 H          -1.7190    5.2441   -1.8121 H       1  LIG1        0.0660
     41 C          -2.6805    8.2438    1.0442 C.3     1  LIG1       -0.0357
     42 H          -2.6431    9.0549    1.7697 H       1  LIG1        0.0279
     43 H          -3.5015    7.5719    1.2950 H       1  LIG1        0.0279
     44 H          -2.8710    8.6695    0.0572 H       1  LIG1        0.0279
@<TRIPOS>BOND
     1    10     8    1
     2     6     1    1
     3    40    37    1
     4    38    37    1
     5    39    37    1
     6     1     5   ar
     7     1     2   ar
     8     5     4   ar
     9     8     9    1
    10     8     7    1
    11     8    11    1
    12    37    36    1
    13     2     7    1
    14     2     3   ar
    15     4     3   ar
    16     4    16    1
    17    15    12    1
    18    21    17    1
    19    21    22    1
    20    27    26    1
    21     3    12    1
    22    28    26    1
    23    16    17   ar
    24    16    20   ar
    25    17    18   ar
    26    44    41    1
    27    36    31    1
    28    20    19   ar
    29    18    26    1
    30    18    19   ar
    31    26    29    1
    32    12    14    1
    33    12    13    1
    34    19    30    1
    35    23    22    1
    36    31    30   ar
    37    31    32   ar
    38    30    34   ar
    39    22    25    1
    40    22    24    1
    41    41    32    1
    42    41    43    1
    43    41    42    1
    44    32    33   ar
    45    34    33   ar
    46    33    35    1
