@<TRIPOS>MOLECULE
mol_data/opt/m06hf/geoms/mol2/5li5li5li5li.out
 58 61 0 0 0
SMALL
GASTEIGER

@<TRIPOS>ATOM
      1 C           1.0054   -1.8595   -1.0874 C.ar    1  LIG1        0.0183
      2 C           0.0556   -1.4723   -1.9796 C.ar    1  LIG1        0.1306
      3 C          -0.4641   -0.1470   -1.7435 C.ar    1  LIG1        0.0066
      4 C           0.1318    0.4318   -0.6577 C.ar    1  LIG1        0.0359
      5 S           1.3092   -0.6238    0.0815 S.2     1  LIG1       -0.0920
      6 H           1.5361   -2.7947   -1.0321 H       1  LIG1        0.0730
      7 O          -0.4403   -2.1821   -3.0232 O.3     1  LIG1       -0.4943
      8 C           0.1020   -3.4753   -3.2016 C.3     1  LIG1        0.0788
      9 H          -0.3893   -3.8962   -4.0743 H       1  LIG1        0.0660
     10 H           1.1802   -3.4136   -3.3732 H       1  LIG1        0.0660
     11 H          -0.0973   -4.0957   -2.3237 H       1  LIG1        0.0660
     12 C          -1.5372    0.4415   -2.6311 C.3     1  LIG1       -0.0351
     13 H          -1.1098    1.1532   -3.3406 H       1  LIG1        0.0279
     14 H          -2.2937    0.9536   -2.0358 H       1  LIG1        0.0279
     15 H          -2.0054   -0.3658   -3.1918 H       1  LIG1        0.0279
     16 C          -0.0787    1.7766   -0.1181 C.ar    1  LIG1        0.0687
     17 C           0.3106    2.2295    1.1117 C.ar    1  LIG1        0.1388
     18 C           0.0421    3.6156    1.3575 C.ar    1  LIG1        0.0072
     19 C          -0.5613    4.1986    0.2749 C.ar    1  LIG1        0.0365
     20 S          -0.7889    3.0673   -1.0305 S.2     1  LIG1       -0.0831
     21 O           0.9413    1.4384    2.0311 O.3     1  LIG1       -0.4937
     22 C           0.0391    0.7974    2.9362 C.3     1  LIG1        0.0789
     23 H           0.6520    0.1964    3.6030 H       1  LIG1        0.0660
     24 H          -0.5157    1.5469    3.5044 H       1  LIG1        0.0660
     25 H          -0.6531    0.1608    2.3831 H       1  LIG1        0.0660
     26 C           0.4429    4.2719    2.6589 C.3     1  LIG1       -0.0351
     27 H           0.9153    5.2376    2.4757 H       1  LIG1        0.0279
     28 H           1.1540    3.6183    3.1642 H       1  LIG1        0.0279
     29 H          -0.4214    4.4246    3.3095 H       1  LIG1        0.0279
     30 C          -1.0326    5.5761    0.1341 C.ar    1  LIG1        0.0687
     31 C          -1.3766    6.2053   -1.0320 C.ar    1  LIG1        0.1388
     32 C          -1.8658    7.5446   -0.8709 C.ar    1  LIG1        0.0072
     33 C          -1.8943    7.8985    0.4456 C.ar    1  LIG1        0.0365
     34 S          -1.3058    6.6367    1.4790 S.2     1  LIG1       -0.0831
     35 O          -1.3072    5.5935   -2.2518 O.3     1  LIG1       -0.4937
     36 C          -0.0744    5.8273   -2.9394 C.3     1  LIG1        0.0789
     37 H          -0.1228    5.2462   -3.8567 H       1  LIG1        0.0660
     38 H           0.0304    6.8891   -3.1692 H       1  LIG1        0.0660
     39 H           0.7626    5.4923   -2.3248 H       1  LIG1        0.0660
     40 C          -2.3186    8.4023   -2.0270 C.3     1  LIG1       -0.0351
     41 H          -1.4748    8.9449   -2.4581 H       1  LIG1        0.0279
     42 H          -3.0521    9.1316   -1.6839 H       1  LIG1        0.0279
     43 H          -2.7560    7.7665   -2.7972 H       1  LIG1        0.0279
     44 C          -2.3354    9.1739    1.0317 C.ar    1  LIG1        0.0681
     45 C          -3.4572    9.4483    1.7626 C.ar    1  LIG1        0.1382
     46 C          -3.5088   10.8025    2.2637 C.ar    1  LIG1       -0.0011
     47 C          -2.4141   11.5065    1.8860 C.ar    1  LIG1       -0.0172
     48 S          -1.3117   10.5781    0.9389 S.2     1  LIG1       -0.0921
     49 H          -2.1994   12.5402    2.1073 H       1  LIG1        0.0697
     50 O          -4.4905    8.6268    2.0627 O.3     1  LIG1       -0.4937
     51 C          -4.8510    7.6181    1.1228 C.3     1  LIG1        0.0789
     52 H          -5.8572    7.3104    1.3978 H       1  LIG1        0.0660
     53 H          -4.8440    8.0320    0.1122 H       1  LIG1        0.0660
     54 H          -4.1729    6.7673    1.1766 H       1  LIG1        0.0660
     55 C          -4.6722   11.3023    3.0838 C.3     1  LIG1       -0.0357
     56 H          -4.5238   12.3472    3.3517 H       1  LIG1        0.0279
     57 H          -4.7706   10.7072    3.9922 H       1  LIG1        0.0279
     58 H          -5.5974   11.2027    2.5150 H       1  LIG1        0.0279
@<TRIPOS>BOND
     1     9     8    1
     2    37    36    1
     3    10     8    1
     4    13    12    1
     5     8     7    1
     6     8    11    1
     7    15    12    1
     8    38    36    1
     9     7     2    1
    10    36    39    1
    11    36    35    1
    12    43    40    1
    13    12    14    1
    14    12     3    1
    15    41    40    1
    16    35    31    1
    17    40    42    1
    18    40    32    1
    19     2     3   ar
    20     2     1   ar
    21     3     4   ar
    22     1     6    1
    23     1     5   ar
    24    31    32   ar
    25    31    30   ar
    26    20    16   ar
    27    20    19   ar
    28    32    33   ar
    29     4    16    1
    30     4     5   ar
    31    16    17   ar
    32    53    51    1
    33    30    19    1
    34    30    34   ar
    35    19    18   ar
    36    33    44    1
    37    33    34   ar
    38    48    44   ar
    39    48    47   ar
    40    44    45   ar
    41    17    18   ar
    42    17    21    1
    43    51    54    1
    44    51    52    1
    45    51    50    1
    46    18    26    1
    47    45    50    1
    48    45    46   ar
    49    47    49    1
    50    47    46   ar
    51    21    22    1
    52    46    55    1
    53    25    22    1
    54    27    26    1
    55    58    55    1
    56    26    28    1
    57    26    29    1
    58    22    24    1
    59    22    23    1
    60    55    56    1
    61    55    57    1
