@<TRIPOS>MOLECULE
mol_data/opt/m06hf/geoms/mol2/5li5li5li-5li.out
 58 61 0 0 0
SMALL
GASTEIGER

@<TRIPOS>ATOM
      1 C           1.0701   -1.9705   -1.3746 C.ar    1  LIG1        0.0183
      2 C          -0.1591   -1.6941   -1.8869 C.ar    1  LIG1        0.1306
      3 C          -0.6762   -0.4032   -1.5035 C.ar    1  LIG1        0.0066
      4 C           0.2073    0.2628   -0.7021 C.ar    1  LIG1        0.0359
      5 S           1.6494   -0.6672   -0.4016 S.2     1  LIG1       -0.0920
      6 H           1.6631   -2.8616   -1.4924 H       1  LIG1        0.0730
      7 O          -0.9254   -2.4845   -2.6786 O.3     1  LIG1       -0.4943
      8 C          -0.3786   -3.7480   -2.9994 C.3     1  LIG1        0.0788
      9 H          -1.1091   -4.2482   -3.6290 H       1  LIG1        0.0660
     10 H           0.5627   -3.6269   -3.5427 H       1  LIG1        0.0660
     11 H          -0.2074   -4.3297   -2.0894 H       1  LIG1        0.0660
     12 C          -2.0382    0.0620   -1.9642 C.3     1  LIG1       -0.0351
     13 H          -1.9572    0.6616   -2.8732 H       1  LIG1        0.0279
     14 H          -2.5228    0.6593   -1.1924 H       1  LIG1        0.0279
     15 H          -2.6490   -0.8127   -2.1839 H       1  LIG1        0.0279
     16 C           0.0835    1.6095   -0.1378 C.ar    1  LIG1        0.0687
     17 C           0.7234    2.0885    0.9708 C.ar    1  LIG1        0.1388
     18 C           0.4750    3.4704    1.2601 C.ar    1  LIG1        0.0072
     19 C          -0.3618    4.0244    0.3286 C.ar    1  LIG1        0.0365
     20 S          -0.8355    2.8716   -0.8886 S.2     1  LIG1       -0.0831
     21 O           1.5693    1.3324    1.7335 O.3     1  LIG1       -0.4937
     22 C           0.9025    0.6000    2.7640 C.3     1  LIG1        0.0789
     23 H           1.6711    0.0262    3.2760 H       1  LIG1        0.0660
     24 H           0.4194    1.2909    3.4585 H       1  LIG1        0.0660
     25 H           0.1610   -0.0694    2.3254 H       1  LIG1        0.0660
     26 C           1.1181    4.1516    2.4462 C.3     1  LIG1       -0.0351
     27 H           1.4700    5.1476    2.1770 H       1  LIG1        0.0279
     28 H           1.9651    3.5447    2.7669 H       1  LIG1        0.0279
     29 H           0.4165    4.2433    3.2783 H       1  LIG1        0.0279
     30 C          -0.9133    5.3792    0.2945 C.ar    1  LIG1        0.0687
     31 C          -1.3920    6.0442   -0.8004 C.ar    1  LIG1        0.1388
     32 C          -1.9413    7.3403   -0.5247 C.ar    1  LIG1        0.0072
     33 C          -1.8712    7.6274    0.8077 C.ar    1  LIG1        0.0365
     34 S          -1.1543    6.3351    1.7181 S.2     1  LIG1       -0.0831
     35 O          -1.3623    5.5280   -2.0661 O.3     1  LIG1       -0.4937
     36 C          -0.1011    5.7018   -2.7195 C.3     1  LIG1        0.0789
     37 H          -0.2059    5.2580   -3.7061 H       1  LIG1        0.0660
     38 H           0.1313    6.7654   -2.8031 H       1  LIG1        0.0660
     39 H           0.6853    5.1932   -2.1597 H       1  LIG1        0.0660
     40 C          -2.5202    8.2260   -1.5968 C.3     1  LIG1       -0.0351
     41 H          -2.4181    9.2722   -1.3069 H       1  LIG1        0.0279
     42 H          -3.5778    7.9948   -1.7289 H       1  LIG1        0.0279
     43 H          -2.0066    8.0549   -2.5421 H       1  LIG1        0.0279
     44 C          -2.3161    8.8410    1.4979 C.ar    1  LIG1        0.0681
     45 C          -3.5274    9.4690    1.3928 C.ar    1  LIG1        0.1382
     46 C          -3.6657   10.6081    2.2736 C.ar    1  LIG1       -0.0011
     47 C          -2.5331   10.7950    3.0015 C.ar    1  LIG1       -0.0172
     48 S          -1.3110    9.6352    2.6633 S.2     1  LIG1       -0.0921
     49 H          -2.3625   11.5573    3.7453 H       1  LIG1        0.0697
     50 O          -4.5130    8.9782    0.5907 O.3     1  LIG1       -0.4937
     51 C          -5.1566    9.9021   -0.2822 C.3     1  LIG1        0.0789
     52 H          -5.5709    9.3129   -1.0976 H       1  LIG1        0.0660
     53 H          -5.9650   10.4233    0.2301 H       1  LIG1        0.0660
     54 H          -4.4375   10.6245   -0.6746 H       1  LIG1        0.0660
     55 C          -4.9224   11.4347    2.4383 C.3     1  LIG1       -0.0357
     56 H          -4.8380   12.0481    3.3344 H       1  LIG1        0.0279
     57 H          -5.7881   10.7793    2.5460 H       1  LIG1        0.0279
     58 H          -5.0836   12.0937    1.5836 H       1  LIG1        0.0279
@<TRIPOS>BOND
     1    37    36    1
     2     9     8    1
     3    10     8    1
     4     8     7    1
     5     8    11    1
     6    13    12    1
     7    38    36    1
     8    36    39    1
     9    36    35    1
    10     7     2    1
    11    43    40    1
    12    15    12    1
    13    35    31    1
    14    12     3    1
    15    12    14    1
    16     2     3   ar
    17     2     1   ar
    18    42    40    1
    19    40    41    1
    20    40    32    1
    21     3     4   ar
    22     6     1    1
    23     1     5   ar
    24    52    51    1
    25    20    16   ar
    26    20    19   ar
    27    31    32   ar
    28    31    30   ar
    29     4     5   ar
    30     4    16    1
    31    54    51    1
    32    32    33   ar
    33    51    53    1
    34    51    50    1
    35    16    17   ar
    36    30    19    1
    37    30    34   ar
    38    19    18   ar
    39    50    45    1
    40    33    44    1
    41    33    34   ar
    42    17    18   ar
    43    17    21    1
    44    18    26    1
    45    45    44   ar
    46    45    46   ar
    47    44    48   ar
    48    58    55    1
    49    21    22    1
    50    27    26    1
    51    46    55    1
    52    46    47   ar
    53    25    22    1
    54    55    57    1
    55    55    56    1
    56    26    28    1
    57    26    29    1
    58    48    47   ar
    59    22    23    1
    60    22    24    1
    61    47    49    1
