@<TRIPOS>MOLECULE
mol_data/opt/m06hf/geoms/mol2/5li5li5li-5li-.out
 58 61 0 0 0
SMALL
GASTEIGER

@<TRIPOS>ATOM
      1 C           0.9950   -2.0185   -1.2799 C.ar    1  LIG1        0.0183
      2 C          -0.2143   -1.7239   -1.8280 C.ar    1  LIG1        0.1306
      3 C          -0.7196   -0.4223   -1.4657 C.ar    1  LIG1        0.0066
      4 C           0.1523    0.2328   -0.6429 C.ar    1  LIG1        0.0359
      5 S           1.5692   -0.7201   -0.2973 S.2     1  LIG1       -0.0920
      6 H           1.5757   -2.9203   -1.3765 H       1  LIG1        0.0730
      7 O          -0.9716   -2.5053   -2.6371 O.3     1  LIG1       -0.4943
      8 C          -0.4379   -3.7796   -2.9364 C.3     1  LIG1        0.0788
      9 H          -1.1589   -4.2706   -3.5839 H       1  LIG1        0.0660
     10 H           0.5203   -3.6775   -3.4534 H       1  LIG1        0.0660
     11 H          -0.3023   -4.3594   -2.0191 H       1  LIG1        0.0660
     12 C          -2.0599    0.0636   -1.9668 C.3     1  LIG1       -0.0351
     13 H          -1.9431    0.6568   -2.8762 H       1  LIG1        0.0279
     14 H          -2.5557    0.6734   -1.2120 H       1  LIG1        0.0279
     15 H          -2.6793   -0.8017   -2.1994 H       1  LIG1        0.0279
     16 C           0.0360    1.5845   -0.0890 C.ar    1  LIG1        0.0687
     17 C           0.6530    2.0586    1.0346 C.ar    1  LIG1        0.1388
     18 C           0.4206    3.4460    1.3100 C.ar    1  LIG1        0.0072
     19 C          -0.3803    4.0091    0.3527 C.ar    1  LIG1        0.0365
     20 S          -0.8398    2.8580   -0.8715 S.2     1  LIG1       -0.0831
     21 O           1.4643    1.2922    1.8243 O.3     1  LIG1       -0.4937
     22 C           0.7566    0.5769    2.8394 C.3     1  LIG1        0.0789
     23 H           1.5006   -0.0076    3.3752 H       1  LIG1        0.0660
     24 H           0.2668    1.2797    3.5171 H       1  LIG1        0.0660
     25 H           0.0158   -0.0817    2.3837 H       1  LIG1        0.0660
     26 C           1.0421    4.1227    2.5101 C.3     1  LIG1       -0.0351
     27 H           1.4184    5.1110    2.2459 H       1  LIG1        0.0279
     28 H           1.8692    3.5031    2.8574 H       1  LIG1        0.0279
     29 H           0.3193    4.2309    3.3219 H       1  LIG1        0.0279
     30 C          -0.9071    5.3730    0.2965 C.ar    1  LIG1        0.0687
     31 C          -1.3431    6.0404   -0.8148 C.ar    1  LIG1        0.1388
     32 C          -1.8772    7.3472   -0.5609 C.ar    1  LIG1        0.0072
     33 C          -1.8397    7.6401    0.7715 C.ar    1  LIG1        0.0365
     34 S          -1.1716    6.3405    1.7081 S.2     1  LIG1       -0.0831
     35 O          -1.2867    5.5170   -2.0766 O.3     1  LIG1       -0.4937
     36 C          -0.0047    5.6654   -2.6949 C.3     1  LIG1        0.0789
     37 H          -0.0895    5.2187   -3.6821 H       1  LIG1        0.0660
     38 H           0.2488    6.7243   -2.7765 H       1  LIG1        0.0660
     39 H           0.7565    5.1458   -2.1108 H       1  LIG1        0.0660
     40 C          -2.4101    8.2371   -1.6532 C.3     1  LIG1       -0.0351
     41 H          -2.2978    9.2830   -1.3657 H       1  LIG1        0.0279
     42 H          -3.4675    8.0237   -1.8139 H       1  LIG1        0.0279
     43 H          -1.8733    8.0519   -2.5829 H       1  LIG1        0.0279
     44 C          -2.2826    8.8649    1.4430 C.ar    1  LIG1        0.0681
     45 C          -3.4793    9.5132    1.3009 C.ar    1  LIG1        0.1382
     46 C          -3.6223   10.6593    2.1718 C.ar    1  LIG1       -0.0011
     47 C          -2.5073   10.8305    2.9303 C.ar    1  LIG1       -0.0172
     48 S          -1.2967    9.6479    2.6322 S.2     1  LIG1       -0.0921
     49 H          -2.3444   11.5938    3.6748 H       1  LIG1        0.0697
     50 O          -4.4505    9.0353    0.4738 O.3     1  LIG1       -0.4937
     51 C          -5.0529    9.9656   -0.4215 C.3     1  LIG1        0.0789
     52 H          -5.8659   10.5037    0.0652 H       1  LIG1        0.0660
     53 H          -4.3104   10.6731   -0.7971 H       1  LIG1        0.0660
     54 H          -5.4545    9.3793   -1.2453 H       1  LIG1        0.0660
     55 C          -4.8686   11.5082    2.2972 C.3     1  LIG1       -0.0357
     56 H          -4.7988   12.1246    3.1926 H       1  LIG1        0.0279
     57 H          -5.7482   10.8684    2.3834 H       1  LIG1        0.0279
     58 H          -4.9942   12.1656    1.4353 H       1  LIG1        0.0279
@<TRIPOS>BOND
     1    37    36    1
     2     9     8    1
     3    10     8    1
     4     8     7    1
     5     8    11    1
     6    13    12    1
     7    38    36    1
     8    36    39    1
     9    36    35    1
    10     7     2    1
    11    43    40    1
    12    15    12    1
    13    35    31    1
    14    12     3    1
    15    12    14    1
    16     2     3   ar
    17     2     1   ar
    18    42    40    1
    19    40    41    1
    20    40    32    1
    21     3     4   ar
    22     6     1    1
    23     1     5   ar
    24    54    51    1
    25    20    16   ar
    26    20    19   ar
    27    31    32   ar
    28    31    30   ar
    29    53    51    1
    30     4     5   ar
    31     4    16    1
    32    32    33   ar
    33    51    52    1
    34    51    50    1
    35    16    17   ar
    36    30    19    1
    37    30    34   ar
    38    19    18   ar
    39    50    45    1
    40    33    44    1
    41    33    34   ar
    42    17    18   ar
    43    17    21    1
    44    45    44   ar
    45    45    46   ar
    46    18    26    1
    47    58    55    1
    48    44    48   ar
    49    21    22    1
    50    46    55    1
    51    46    47   ar
    52    27    26    1
    53    55    57    1
    54    55    56    1
    55    25    22    1
    56    26    28    1
    57    26    29    1
    58    48    47   ar
    59    22    23    1
    60    22    24    1
    61    47    49    1
