@<TRIPOS>MOLECULE
mol_data/opt/m06hf/geoms/mol2/5li5li5li-.out
 44 46 0 0 0
SMALL
GASTEIGER

@<TRIPOS>ATOM
      1 C          -0.0377   -1.9583   -1.3944 C.ar    1  LIG1        0.0183
      2 C          -1.2440   -1.6037   -0.8778 C.ar    1  LIG1        0.1306
      3 C          -1.2817   -0.2632   -0.3464 C.ar    1  LIG1        0.0066
      4 C          -0.0741    0.3608   -0.4919 C.ar    1  LIG1        0.0359
      5 S           1.1067   -0.6731   -1.2563 S.2     1  LIG1       -0.0920
      6 H           0.2559   -2.8954   -1.8363 H       1  LIG1        0.0730
      7 O          -2.3683   -2.3585   -0.8073 O.3     1  LIG1       -0.4943
      8 C          -2.2601   -3.6707   -1.3226 C.3     1  LIG1        0.0788
      9 H          -3.2315   -4.1370   -1.1835 H       1  LIG1        0.0660
     10 H          -2.0083   -3.6409   -2.3861 H       1  LIG1        0.0660
     11 H          -1.4946   -4.2297   -0.7775 H       1  LIG1        0.0660
     12 C          -2.5396    0.2929    0.2810 C.3     1  LIG1       -0.0351
     13 H          -2.3068    0.8402    1.1951 H       1  LIG1        0.0279
     14 H          -3.2048   -0.5363    0.5168 H       1  LIG1        0.0279
     15 H          -3.0553    0.9657   -0.4077 H       1  LIG1        0.0279
     16 C           0.2864    1.7334   -0.1330 C.ar    1  LIG1        0.0687
     17 C           1.5496    2.2481   -0.0537 C.ar    1  LIG1        0.1388
     18 C           1.6149    3.6502    0.2359 C.ar    1  LIG1        0.0072
     19 C           0.3616    4.1825    0.3763 C.ar    1  LIG1        0.0365
     20 S          -0.8829    2.9815    0.1536 S.2     1  LIG1       -0.0831
     21 O           2.6744    1.4999   -0.2670 O.3     1  LIG1       -0.4937
     22 C           3.1920    0.9124    0.9299 C.3     1  LIG1        0.0789
     23 H           4.0510    0.3171    0.6307 H       1  LIG1        0.0660
     24 H           3.4976    1.6953    1.6273 H       1  LIG1        0.0660
     25 H           2.4339    0.2767    1.3898 H       1  LIG1        0.0660
     26 C           2.9410    4.3705    0.3186 C.3     1  LIG1       -0.0351
     27 H           2.9096    5.3042   -0.2440 H       1  LIG1        0.0279
     28 H           3.7061    3.7231   -0.1100 H       1  LIG1        0.0279
     29 H           3.2069    4.5961    1.3538 H       1  LIG1        0.0279
     30 C          -0.0087    5.5581    0.7092 C.ar    1  LIG1        0.0681
     31 C          -1.2493    6.1225    0.5933 C.ar    1  LIG1        0.1382
     32 C          -1.3374    7.4825    1.0496 C.ar    1  LIG1       -0.0011
     33 C          -0.1343    7.9102    1.5115 C.ar    1  LIG1       -0.0172
     34 S           1.0935    6.7069    1.4002 S.2     1  LIG1       -0.0921
     35 H           0.1052    8.8800    1.9184 H       1  LIG1        0.0697
     36 O          -2.3337    5.4378    0.1202 O.3     1  LIG1       -0.4937
     37 C          -2.5352    5.5898   -1.2877 C.3     1  LIG1        0.0789
     38 H          -3.3806    4.9565   -1.5445 H       1  LIG1        0.0660
     39 H          -2.7585    6.6320   -1.5236 H       1  LIG1        0.0660
     40 H          -1.6444    5.2666   -1.8284 H       1  LIG1        0.0660
     41 C          -2.6246    8.2725    1.0147 C.3     1  LIG1       -0.0357
     42 H          -2.5914    9.0814    1.7431 H       1  LIG1        0.0279
     43 H          -3.4600    7.6116    1.2462 H       1  LIG1        0.0279
     44 H          -2.7880    8.7033    0.0251 H       1  LIG1        0.0279
@<TRIPOS>BOND
     1    10     8    1
     2     6     1    1
     3    40    37    1
     4    38    37    1
     5    39    37    1
     6     1     5   ar
     7     1     2   ar
     8     8     9    1
     9     8     7    1
    10     8    11    1
    11    37    36    1
    12     5     4   ar
    13     2     7    1
    14     2     3   ar
    15     4     3   ar
    16     4    16    1
    17    15    12    1
    18     3    12    1
    19    21    17    1
    20    21    22    1
    21    27    26    1
    22    16    17   ar
    23    16    20   ar
    24    28    26    1
    25    17    18   ar
    26    44    41    1
    27    36    31    1
    28    20    19   ar
    29    18    26    1
    30    18    19   ar
    31    12    14    1
    32    12    13    1
    33    26    29    1
    34    19    30    1
    35    31    30   ar
    36    31    32   ar
    37    23    22    1
    38    30    34   ar
    39    22    25    1
    40    22    24    1
    41    41    32    1
    42    41    43    1
    43    41    42    1
    44    32    33   ar
    45    34    33   ar
    46    33    35    1
