@<TRIPOS>MOLECULE
mol_data/opt/m06hf/geoms/mol2/5li5li-5li-.out
 44 46 0 0 0
SMALL
GASTEIGER

@<TRIPOS>ATOM
      1 C           0.1722   -1.9364   -1.3925 C.ar    1  LIG1        0.0183
      2 C          -1.0484   -1.6374   -0.8742 C.ar    1  LIG1        0.1306
      3 C          -1.1466   -0.3001   -0.3423 C.ar    1  LIG1        0.0066
      4 C           0.0310    0.3784   -0.4893 C.ar    1  LIG1        0.0359
      5 S           1.2568   -0.6002   -1.2557 S.2     1  LIG1       -0.0920
      6 H           0.5076   -2.8590   -1.8350 H       1  LIG1        0.0730
      7 O          -2.1369   -2.4428   -0.8022 O.3     1  LIG1       -0.4943
      8 C          -1.9696   -3.7486   -1.3180 C.3     1  LIG1        0.0788
      9 H          -2.9184   -4.2588   -1.1777 H       1  LIG1        0.0660
     10 H          -1.7209   -3.7072   -2.3819 H       1  LIG1        0.0660
     11 H          -1.1785   -4.2721   -0.7741 H       1  LIG1        0.0660
     12 C          -2.4277    0.1978    0.2870 C.3     1  LIG1       -0.0351
     13 H          -2.2188    0.7553    1.2007 H       1  LIG1        0.0279
     14 H          -3.0538   -0.6610    0.5239 H       1  LIG1        0.0279
     15 H          -2.9748    0.8461   -0.4009 H       1  LIG1        0.0279
     16 C           0.3289    1.7661   -0.1306 C.ar    1  LIG1        0.0687
     17 C           1.5675    2.3379   -0.0530 C.ar    1  LIG1        0.1388
     18 C           1.5690    3.7414    0.2368 C.ar    1  LIG1        0.0072
     19 C           0.2929    4.2159    0.3789 C.ar    1  LIG1        0.0365
     20 S          -0.8957    2.9595    0.1576 S.2     1  LIG1       -0.0831
     21 O           2.7250    1.6418   -0.2679 O.3     1  LIG1       -0.4937
     22 C           3.2704    1.0781    0.9281 C.3     1  LIG1        0.0789
     23 H           4.1548    0.5222    0.6275 H       1  LIG1        0.0660
     24 H           3.5414    1.8740    1.6252 H       1  LIG1        0.0660
     25 H           2.5425    0.4088    1.3891 H       1  LIG1        0.0660
     26 C           2.8610    4.5216    0.3178 C.3     1  LIG1       -0.0351
     27 H           2.7862    5.4529   -0.2446 H       1  LIG1        0.0279
     28 H           3.6542    3.9098   -0.1120 H       1  LIG1        0.0279
     29 H           3.1178    4.7589    1.3527 H       1  LIG1        0.0279
     30 C          -0.1393    5.5732    0.7124 C.ar    1  LIG1        0.0681
     31 C          -1.4046    6.0804    0.5984 C.ar    1  LIG1        0.1382
     32 C          -1.5540    7.4350    1.0548 C.ar    1  LIG1       -0.0011
     33 C          -0.3711    7.9172    1.5149 C.ar    1  LIG1       -0.0172
     34 S           0.9102    6.7713    1.4018 S.2     1  LIG1       -0.0921
     35 H          -0.1756    8.8970    1.9215 H       1  LIG1        0.0697
     36 O          -2.4572    5.3468    0.1268 O.3     1  LIG1       -0.4937
     37 C          -2.6675    5.4894   -1.2809 C.3     1  LIG1        0.0789
     38 H          -3.4828    4.8175   -1.5366 H       1  LIG1        0.0660
     39 H          -2.9393    6.5201   -1.5163 H       1  LIG1        0.0660
     40 H          -1.7633    5.2080   -1.8228 H       1  LIG1        0.0660
     41 C          -2.8760    8.1654    1.0219 C.3     1  LIG1       -0.0357
     42 H          -2.8784    8.9753    1.7498 H       1  LIG1        0.0279
     43 H          -3.6800    7.4672    1.2552 H       1  LIG1        0.0279
     44 H          -3.0607    8.5877    0.0324 H       1  LIG1        0.0279
@<TRIPOS>BOND
     1    10     8    1
     2     6     1    1
     3    40    37    1
     4    38    37    1
     5    39    37    1
     6     1     5   ar
     7     1     2   ar
     8     8     9    1
     9     8     7    1
    10     8    11    1
    11    37    36    1
    12     5     4   ar
    13     2     7    1
    14     2     3   ar
    15     4     3   ar
    16     4    16    1
    17    15    12    1
    18     3    12    1
    19    21    17    1
    20    21    22    1
    21    27    26    1
    22    16    17   ar
    23    16    20   ar
    24    28    26    1
    25    17    18   ar
    26    44    41    1
    27    36    31    1
    28    20    19   ar
    29    18    26    1
    30    18    19   ar
    31    12    14    1
    32    12    13    1
    33    26    29    1
    34    19    30    1
    35    31    30   ar
    36    31    32   ar
    37    23    22    1
    38    30    34   ar
    39    22    25    1
    40    22    24    1
    41    41    32    1
    42    41    43    1
    43    41    42    1
    44    32    33   ar
    45    34    33   ar
    46    33    35    1
