@<TRIPOS>MOLECULE
mol_data/opt/m06hf/geoms/mol2/5ll.out
 17 17 0 0 0
SMALL
GASTEIGER

@<TRIPOS>ATOM
      1 C          -2.2382   -1.6532   -0.0004 C.ar    1  LIG1        0.0211
      2 C          -0.8810   -1.7436   -0.0001 C.ar    1  LIG1        0.1685
      3 C          -0.2397   -0.4358    0.0003 C.ar    1  LIG1        0.1685
      4 C          -1.1531    0.5665    0.0005 C.ar    1  LIG1        0.0211
      5 S          -2.7750   -0.0147    0.0001 S.2     1  LIG1       -0.0976
      6 H          -2.9549   -2.4562   -0.0007 H       1  LIG1        0.0731
      7 H          -0.9300    1.6195    0.0008 H       1  LIG1        0.0731
      8 O          -0.1420   -2.8838   -0.0001 O.3     1  LIG1       -0.4909
      9 C          -0.8769   -4.0933   -0.0002 C.3     1  LIG1        0.0790
     10 H          -0.1434   -4.8950   -0.0000 H       1  LIG1        0.0660
     11 H          -1.5013   -4.1572    0.8947 H       1  LIG1        0.0660
     12 H          -1.5010   -4.1572   -0.8953 H       1  LIG1        0.0660
     13 O           1.0870   -0.1567    0.0006 O.3     1  LIG1       -0.4909
     14 C           2.0367   -1.2160   -0.0015 C.3     1  LIG1        0.0790
     15 H           3.0054   -0.7229   -0.0018 H       1  LIG1        0.0660
     16 H           1.9274   -1.8361    0.8877 H       1  LIG1        0.0660
     17 H           1.9258   -1.8341   -0.8918 H       1  LIG1        0.0660
@<TRIPOS>BOND
     1    12     9    1
     2    17    14    1
     3    15    14    1
     4    14    13    1
     5    14    16    1
     6     6     1    1
     7     1     2   ar
     8     1     5   ar
     9     9     8    1
    10     9    10    1
    11     9    11    1
    12     2     8    1
    13     2     3   ar
    14     5     4   ar
    15     3     4   ar
    16     3    13    1
    17     4     7    1
