@<TRIPOS>MOLECULE
mol_data/opt/m06hf/geoms/mol2/5ll5ll-5ll-5ll.out
 62 65 0 0 0
SMALL
GASTEIGER

@<TRIPOS>ATOM
      1 C          -0.8117   -2.0966   -2.0372 C.ar    1  LIG1        0.0218
      2 C          -0.4919   -2.1371   -0.7166 C.ar    1  LIG1        0.1691
      3 C          -0.1802   -0.8299   -0.1847 C.ar    1  LIG1        0.1768
      4 C          -0.2740    0.1576   -1.1151 C.ar    1  LIG1        0.0749
      5 S          -0.7280   -0.4826   -2.6611 S.2     1  LIG1       -0.0885
      6 H          -1.0883   -2.9096   -2.6866 H       1  LIG1        0.0731
      7 O          -0.4483   -3.1993    0.1163 O.3     1  LIG1       -0.4909
      8 C          -0.7860   -4.4461   -0.4648 C.3     1  LIG1        0.0790
      9 H          -0.7013   -5.1847    0.3270 H       1  LIG1        0.0660
     10 H          -1.8101   -4.4202   -0.8461 H       1  LIG1        0.0660
     11 H          -0.0928   -4.6847   -1.2757 H       1  LIG1        0.0660
     12 O           0.1905   -0.6300    1.1066 O.3     1  LIG1       -0.4903
     13 C          -0.9142   -0.6106    2.0162 C.3     1  LIG1        0.0790
     14 H          -0.4922   -0.4264    3.0005 H       1  LIG1        0.0660
     15 H          -1.6001    0.1922    1.7409 H       1  LIG1        0.0660
     16 H          -1.4251   -1.5742    1.9969 H       1  LIG1        0.0660
     17 C          -0.0879    1.5913   -0.8774 C.ar    1  LIG1        0.0755
     18 C           0.9377    2.2520   -0.2628 C.ar    1  LIG1        0.1775
     19 C           0.6586    3.6632   -0.0972 C.ar    1  LIG1        0.1775
     20 C          -0.5435    4.0428   -0.6039 C.ar    1  LIG1        0.0755
     21 S          -1.3794    2.6890   -1.2993 S.2     1  LIG1       -0.0794
     22 O           2.1243    1.8069    0.1870 O.3     1  LIG1       -0.4903
     23 C           2.6716    0.6105   -0.3630 C.3     1  LIG1        0.0790
     24 H           3.7449    0.6850   -0.2058 H       1  LIG1        0.0660
     25 H           2.2716   -0.2580    0.1571 H       1  LIG1        0.0660
     26 H           2.4489    0.5547   -1.4307 H       1  LIG1        0.0660
     27 O           1.5481    4.5198    0.4657 O.3     1  LIG1       -0.4903
     28 C           1.6758    4.3633    1.8827 C.3     1  LIG1        0.0790
     29 H           2.4189    5.0901    2.1994 H       1  LIG1        0.0660
     30 H           0.7157    4.5707    2.3588 H       1  LIG1        0.0660
     31 H           2.0093    3.3515    2.1144 H       1  LIG1        0.0660
     32 C          -1.1266    5.3860   -0.5602 C.ar    1  LIG1        0.0755
     33 C          -0.5943    6.5941   -0.9165 C.ar    1  LIG1        0.1775
     34 C          -1.4723    7.6962   -0.5850 C.ar    1  LIG1        0.1775
     35 C          -2.6392    7.3090   -0.0070 C.ar    1  LIG1        0.0755
     36 S          -2.6992    5.5863    0.1773 S.2     1  LIG1       -0.0794
     37 O           0.5553    6.8985   -1.5441 O.3     1  LIG1       -0.4903
     38 C           1.2136    5.8923   -2.3100 C.3     1  LIG1        0.0790
     39 H           1.8480    6.4314   -3.0095 H       1  LIG1        0.0660
     40 H           1.8188    5.2623   -1.6603 H       1  LIG1        0.0660
     41 H           0.4778    5.2926   -2.8509 H       1  LIG1        0.0660
     42 O          -1.1368    8.9916   -0.8199 O.3     1  LIG1       -0.4903
     43 C          -1.3013    9.3808   -2.1865 C.3     1  LIG1        0.0790
     44 H          -0.9946   10.4220   -2.2441 H       1  LIG1        0.0660
     45 H          -0.6681    8.7634   -2.8240 H       1  LIG1        0.0660
     46 H          -2.3499    9.2781   -2.4713 H       1  LIG1        0.0660
     47 C          -3.7579    8.1780    0.3690 C.ar    1  LIG1        0.0749
     48 C          -3.7739    9.3149    1.1262 C.ar    1  LIG1        0.1768
     49 C          -5.0877    9.9322    1.1627 C.ar    1  LIG1        0.1691
     50 C          -6.0114    9.2489    0.4484 C.ar    1  LIG1        0.0218
     51 S          -5.3410    7.8422   -0.2875 S.2     1  LIG1       -0.0885
     52 H          -7.0556    9.4950    0.3520 H       1  LIG1        0.0731
     53 O          -2.7947    9.9056    1.8367 O.3     1  LIG1       -0.4903
     54 C          -1.6845    9.1261    2.2749 C.3     1  LIG1        0.0790
     55 H          -1.2816    9.6551    3.1351 H       1  LIG1        0.0660
     56 H          -2.0232    8.1306    2.5699 H       1  LIG1        0.0660
     57 H          -0.9372    9.0592    1.4864 H       1  LIG1        0.0660
     58 O          -5.3534   11.0490    1.8897 O.3     1  LIG1       -0.4909
     59 C          -4.6982   12.2233    1.4066 C.3     1  LIG1        0.0790
     60 H          -5.0028   13.0307    2.0681 H       1  LIG1        0.0660
     61 H          -3.6171   12.0920    1.4403 H       1  LIG1        0.0660
     62 H          -5.0240   12.4330    0.3854 H       1  LIG1        0.0660
@<TRIPOS>BOND
     1    39    38    1
     2    41    38    1
     3    45    43    1
     4     6     1    1
     5     5     1   ar
     6     5     4   ar
     7    46    43    1
     8    38    40    1
     9    38    37    1
    10    44    43    1
    11    43    42    1
    12     1     2   ar
    13    37    33    1
    14    26    23    1
    15    21    17   ar
    16    21    20   ar
    17    11     8    1
    18     4    17    1
    19     4     3   ar
    20    33    34   ar
    21    33    32   ar
    22    17    18   ar
    23    10     8    1
    24    42    34    1
    25     2     3   ar
    26     2     7    1
    27    20    32    1
    28    20    19   ar
    29    34    35   ar
    30    32    36   ar
    31     8     7    1
    32     8     9    1
    33    23    24    1
    34    23    25    1
    35    23    22    1
    36    51    47   ar
    37    51    50   ar
    38    18    19   ar
    39    18    22    1
    40     3    12    1
    41    19    27    1
    42    35    36   ar
    43    35    47    1
    44    52    50    1
    45    47    48   ar
    46    62    59    1
    47    50    49   ar
    48    27    28    1
    49    12    13    1
    50    48    49   ar
    51    48    53    1
    52    49    58    1
    53    59    61    1
    54    59    58    1
    55    59    60    1
    56    57    54    1
    57    15    13    1
    58    53    54    1
    59    28    31    1
    60    28    29    1
    61    28    30    1
    62    16    13    1
    63    13    14    1
    64    54    56    1
    65    54    55    1
