@<TRIPOS>MOLECULE
mol_data/opt/m06hf/geoms/mol2/5ll5ll.out
 32 33 0 0 0
SMALL
GASTEIGER

@<TRIPOS>ATOM
      1 C          -1.1105   -1.8912   -1.4806 C.ar    1  LIG1        0.0218
      2 C          -0.9977   -2.2379   -0.1725 C.ar    1  LIG1        0.1691
      3 C          -0.6201   -1.1192    0.6573 C.ar    1  LIG1        0.1768
      4 C          -0.4359    0.0330   -0.0436 C.ar    1  LIG1        0.0749
      5 S          -0.7684   -0.2100   -1.7335 S.2     1  LIG1       -0.0885
      6 H          -1.3753   -2.5130   -2.3189 H       1  LIG1        0.0731
      7 O          -1.1867   -3.4427    0.4114 O.3     1  LIG1       -0.4909
      8 C          -1.6291   -4.4769   -0.4483 C.3     1  LIG1        0.0790
      9 H          -1.7609   -5.3572    0.1746 H       1  LIG1        0.0660
     10 H          -2.5786   -4.1995   -0.9130 H       1  LIG1        0.0660
     11 H          -0.8810   -4.6743   -1.2211 H       1  LIG1        0.0660
     12 O          -0.5151   -1.1955    2.0098 O.3     1  LIG1       -0.4903
     13 C           0.6418   -1.9056    2.4619 C.3     1  LIG1        0.0790
     14 H           0.5982   -1.8902    3.5480 H       1  LIG1        0.0660
     15 H           0.6113   -2.9313    2.0938 H       1  LIG1        0.0660
     16 H           1.5433   -1.3985    2.1130 H       1  LIG1        0.0660
     17 C          -0.1007    1.3337    0.5300 C.ar    1  LIG1        0.0749
     18 C           0.2622    2.4560   -0.1606 C.ar    1  LIG1        0.1768
     19 C           0.4055    3.6177    0.6882 C.ar    1  LIG1        0.1691
     20 C           0.1815    3.3137    1.9925 C.ar    1  LIG1        0.0218
     21 S          -0.2348    1.6587    2.2281 S.2     1  LIG1       -0.0885
     22 H           0.2243    4.0040    2.8182 H       1  LIG1        0.0731
     23 O           0.4357    2.4706   -1.5189 O.3     1  LIG1       -0.4903
     24 C           1.6990    1.9486   -1.9476 C.3     1  LIG1        0.0790
     25 H           1.6392    1.8659   -3.0304 H       1  LIG1        0.0660
     26 H           2.5019    2.6300   -1.6629 H       1  LIG1        0.0660
     27 H           1.8709    0.9665   -1.5071 H       1  LIG1        0.0660
     28 O           0.6329    4.8929    0.2755 O.3     1  LIG1       -0.4909
     29 C           1.6592    5.0949   -0.6878 C.3     1  LIG1        0.0790
     30 H           1.7775    6.1726   -0.7723 H       1  LIG1        0.0660
     31 H           2.5955    4.6499   -0.3401 H       1  LIG1        0.0660
     32 H           1.3688    4.6760   -1.6504 H       1  LIG1        0.0660
@<TRIPOS>BOND
     1    25    24    1
     2     6     1    1
     3    24    26    1
     4    24    23    1
     5    24    27    1
     6     5     1   ar
     7     5     4   ar
     8    32    29    1
     9    23    18    1
    10     1     2   ar
    11    11     8    1
    12    10     8    1
    13    30    29    1
    14    29    31    1
    15    29    28    1
    16     8     9    1
    17     8     7    1
    18     2     7    1
    19     2     3   ar
    20    18    17   ar
    21    18    19   ar
    22     4    17    1
    23     4     3   ar
    24    28    19    1
    25    17    21   ar
    26     3    12    1
    27    19    20   ar
    28    20    21   ar
    29    20    22    1
    30    12    13    1
    31    15    13    1
    32    16    13    1
    33    13    14    1
