@<TRIPOS>MOLECULE
mol_data/opt/m06hf/geoms/mol2/5ll5ll-5ll.out
 47 49 0 0 0
SMALL
GASTEIGER

@<TRIPOS>ATOM
      1 C          -1.6918   -2.0230   -1.5699 C.ar    1  LIG1        0.0218
      2 C          -0.7707   -2.1748   -0.5821 C.ar    1  LIG1        0.1691
      3 C          -0.2248   -0.9123   -0.1363 C.ar    1  LIG1        0.1768
      4 C          -0.7466    0.1536   -0.7999 C.ar    1  LIG1        0.0749
      5 S          -1.9016   -0.3556   -1.9895 S.2     1  LIG1       -0.0885
      6 H          -2.2573   -2.7824   -2.0829 H       1  LIG1        0.0731
      7 O          -0.3433   -3.3101    0.0139 O.3     1  LIG1       -0.4909
      8 C          -0.9392   -4.5084   -0.4504 C.3     1  LIG1        0.0790
      9 H          -0.4993   -5.3135    0.1312 H       1  LIG1        0.0660
     10 H          -2.0209   -4.4782   -0.2942 H       1  LIG1        0.0660
     11 H          -0.7207   -4.6507   -1.5118 H       1  LIG1        0.0660
     12 O           0.7318   -0.8169    0.8234 O.3     1  LIG1       -0.4903
     13 C           0.2369   -1.0414    2.1477 C.3     1  LIG1        0.0790
     14 H           1.0879   -0.9188    2.8123 H       1  LIG1        0.0660
     15 H          -0.5339   -0.3034    2.3783 H       1  LIG1        0.0660
     16 H          -0.1639   -2.0521    2.2263 H       1  LIG1        0.0660
     17 C          -0.4652    1.5691   -0.5406 C.ar    1  LIG1        0.0755
     18 C           0.7235    2.2387   -0.4685 C.ar    1  LIG1        0.1775
     19 C           0.5498    3.6175   -0.0612 C.ar    1  LIG1        0.1775
     20 C          -0.7458    3.9623    0.1560 C.ar    1  LIG1        0.0755
     21 S          -1.8023    2.6177   -0.1351 S.2     1  LIG1       -0.0794
     22 O           1.9812    1.8333   -0.7166 O.3     1  LIG1       -0.4903
     23 C           2.1956    0.6819   -1.5292 C.3     1  LIG1        0.0790
     24 H           3.2153    0.7740   -1.8951 H       1  LIG1        0.0660
     25 H           2.0861   -0.2239   -0.9352 H       1  LIG1        0.0660
     26 H           1.4946    0.6802   -2.3664 H       1  LIG1        0.0660
     27 O           1.5923    4.4822    0.0347 O.3     1  LIG1       -0.4903
     28 C           2.3933    4.2800    1.2029 C.3     1  LIG1        0.0790
     29 H           3.1825    5.0259    1.1602 H       1  LIG1        0.0660
     30 H           1.7801    4.4282    2.0941 H       1  LIG1        0.0660
     31 H           2.8177    3.2756    1.1910 H       1  LIG1        0.0660
     32 C          -1.2416    5.2685    0.5975 C.ar    1  LIG1        0.0749
     33 C          -0.9875    6.5174    0.1071 C.ar    1  LIG1        0.1768
     34 C          -1.6037    7.5592    0.9103 C.ar    1  LIG1        0.1691
     35 C          -2.3035    7.0713    1.9604 C.ar    1  LIG1        0.0218
     36 S          -2.2482    5.3495    2.0233 S.2     1  LIG1       -0.0885
     37 H          -2.8667    7.6470    2.6757 H       1  LIG1        0.0731
     38 O          -0.3007    6.9051   -0.9837 O.3     1  LIG1       -0.4903
     39 C          -0.1586    5.9989   -2.0749 C.3     1  LIG1        0.0790
     40 H           0.0190    6.6225   -2.9479 H       1  LIG1        0.0660
     41 H           0.6874    5.3356   -1.9054 H       1  LIG1        0.0660
     42 H          -1.0788    5.4257   -2.2036 H       1  LIG1        0.0660
     43 O          -1.5160    8.8766    0.5887 O.3     1  LIG1       -0.4909
     44 C          -0.2009    9.4154    0.7302 C.3     1  LIG1        0.0790
     45 H          -0.2680   10.4566    0.4249 H       1  LIG1        0.0660
     46 H           0.1151    9.3499    1.7738 H       1  LIG1        0.0660
     47 H           0.4978    8.8781    0.0889 H       1  LIG1        0.0660
@<TRIPOS>BOND
     1    40    39    1
     2    26    23    1
     3    42    39    1
     4     6     1    1
     5    39    41    1
     6    39    38    1
     7     5     1   ar
     8     5     4   ar
     9    24    23    1
    10     1     2   ar
    11    23    25    1
    12    23    22    1
    13    11     8    1
    14    38    33    1
    15     4    17    1
    16     4     3   ar
    17    22    18    1
    18     2     3   ar
    19     2     7    1
    20    17    18   ar
    21    17    21   ar
    22    18    19   ar
    23     8    10    1
    24     8     7    1
    25     8     9    1
    26     3    12    1
    27    21    20   ar
    28    19    27    1
    29    19    20   ar
    30    27    28    1
    31    47    44    1
    32    33    32   ar
    33    33    34   ar
    34    20    32    1
    35    45    44    1
    36    43    44    1
    37    43    34    1
    38    32    36   ar
    39    44    46    1
    40    12    13    1
    41    34    35   ar
    42    29    28    1
    43    31    28    1
    44    28    30    1
    45    35    36   ar
    46    35    37    1
    47    13    16    1
    48    13    15    1
    49    13    14    1
