@<TRIPOS>MOLECULE
mol_data/opt/m06hf/geoms/mol2/5ll5ll5ll5ll-.out
 62 65 0 0 0
SMALL
GASTEIGER

@<TRIPOS>ATOM
      1 C          -1.9752   -2.2189   -0.2543 C.ar    1  LIG1        0.0218
      2 C          -0.8599   -2.1566    0.5205 C.ar    1  LIG1        0.1691
      3 C          -0.2554   -0.8433    0.5124 C.ar    1  LIG1        0.1768
      4 C          -0.9251    0.0444   -0.2702 C.ar    1  LIG1        0.0749
      5 S          -2.3025   -0.6997   -1.0182 S.2     1  LIG1       -0.0885
      6 H          -2.6253   -3.0590   -0.4293 H       1  LIG1        0.0731
      7 O          -0.2879   -3.1276    1.2665 O.3     1  LIG1       -0.4909
      8 C          -0.9337   -4.3879    1.2292 C.3     1  LIG1        0.0790
      9 H          -0.3559   -5.0468    1.8707 H       1  LIG1        0.0660
     10 H          -1.9567   -4.3000    1.6042 H       1  LIG1        0.0660
     11 H          -0.9441   -4.7753    0.2073 H       1  LIG1        0.0660
     12 O           0.8854   -0.5518    1.1892 O.3     1  LIG1       -0.4903
     13 C           0.6964   -0.4364    2.6033 C.3     1  LIG1        0.0790
     14 H           1.6716   -0.1976    3.0193 H       1  LIG1        0.0660
     15 H          -0.0126    0.3667    2.8119 H       1  LIG1        0.0660
     16 H           0.3336   -1.3826    3.0059 H       1  LIG1        0.0660
     17 C          -0.6044    1.4644   -0.4548 C.ar    1  LIG1        0.0755
     18 C           0.5432    2.0702   -0.8841 C.ar    1  LIG1        0.1775
     19 C           0.4568    3.5143   -0.8150 C.ar    1  LIG1        0.1775
     20 C          -0.7348    3.9673   -0.3468 C.ar    1  LIG1        0.0755
     21 S          -1.7893    2.6488    0.0445 S.2     1  LIG1       -0.0794
     22 O           1.6839    1.5602   -1.3801 O.3     1  LIG1       -0.4903
     23 C           1.7233    0.1932   -1.7811 C.3     1  LIG1        0.0790
     24 H           2.6094    0.1038   -2.4050 H       1  LIG1        0.0660
     25 H           1.8086   -0.4524   -0.9081 H       1  LIG1        0.0660
     26 H           0.8296   -0.0554   -2.3577 H       1  LIG1        0.0660
     27 O           1.4915    4.3218   -1.1629 O.3     1  LIG1       -0.4903
     28 C           1.6677    4.4468   -2.5779 C.3     1  LIG1        0.0790
     29 H           2.5207    5.1055   -2.7186 H       1  LIG1        0.0660
     30 H           1.8687    3.4679   -3.0124 H       1  LIG1        0.0660
     31 H           0.7718    4.8878   -3.0186 H       1  LIG1        0.0660
     32 C          -1.1547    5.3686   -0.2332 C.ar    1  LIG1        0.0755
     33 C          -0.5840    6.4162    0.4336 C.ar    1  LIG1        0.1775
     34 C          -1.2733    7.6650    0.1823 C.ar    1  LIG1        0.1775
     35 C          -2.3400    7.5403   -0.6496 C.ar    1  LIG1        0.0755
     36 S          -2.5512    5.8924   -1.1453 S.2     1  LIG1       -0.0794
     37 O           0.4731    6.4678    1.2627 O.3     1  LIG1       -0.4903
     38 C           0.9727    5.2620    1.8341 C.3     1  LIG1        0.0790
     39 H           1.5735    5.5749    2.6845 H       1  LIG1        0.0660
     40 H           0.1436    4.6355    2.1692 H       1  LIG1        0.0660
     41 H           1.5871    4.7300    1.1100 H       1  LIG1        0.0660
     42 O          -0.9037    8.8305    0.7716 O.3     1  LIG1       -0.4903
     43 C           0.2851    9.3994    0.2139 C.3     1  LIG1        0.0790
     44 H           0.4860   10.3002    0.7877 H       1  LIG1        0.0660
     45 H           1.1119    8.6951    0.3091 H       1  LIG1        0.0660
     46 H           0.1112    9.6490   -0.8345 H       1  LIG1        0.0660
     47 C          -3.2078    8.6225   -1.1192 C.ar    1  LIG1        0.0749
     48 C          -3.8276    9.6144   -0.4144 C.ar    1  LIG1        0.1768
     49 C          -4.5030   10.5652   -1.2795 C.ar    1  LIG1        0.1691
     50 C          -4.3820   10.2622   -2.5925 C.ar    1  LIG1        0.0218
     51 S          -3.4583    8.8269   -2.8371 S.2     1  LIG1       -0.0885
     52 H          -4.8201   10.8008   -3.4162 H       1  LIG1        0.0731
     53 O          -3.9199    9.8097    0.9148 O.3     1  LIG1       -0.4903
     54 C          -3.8556    8.6819    1.7846 C.3     1  LIG1        0.0790
     55 H          -4.4065    8.9704    2.6767 H       1  LIG1        0.0660
     56 H          -4.3298    7.8199    1.3111 H       1  LIG1        0.0660
     57 H          -2.8199    8.4606    2.0345 H       1  LIG1        0.0660
     58 O          -5.2198   11.6130   -0.7946 O.3     1  LIG1       -0.4909
     59 C          -4.4194   12.6112   -0.1594 C.3     1  LIG1        0.0790
     60 H          -5.1110   13.3720    0.1935 H       1  LIG1        0.0660
     61 H          -3.8734   12.1778    0.6788 H       1  LIG1        0.0660
     62 H          -3.7241   13.0425   -0.8829 H       1  LIG1        0.0660
@<TRIPOS>BOND
     1    52    50    1
     2    31    28    1
     3    30    28    1
     4    51    50   ar
     5    51    47   ar
     6    29    28    1
     7    50    49   ar
     8    28    27    1
     9    24    23    1
    10    26    23    1
    11    23    22    1
    12    23    25    1
    13    22    18    1
    14    49    58    1
    15    49    48   ar
    16    27    19    1
    17    36    35   ar
    18    36    32   ar
    19    47    35    1
    20    47    48   ar
    21     5     4   ar
    22     5     1   ar
    23    18    19   ar
    24    18    17   ar
    25    62    59    1
    26    46    43    1
    27    19    20   ar
    28    58    59    1
    29    35    34   ar
    30    17     4    1
    31    17    21   ar
    32     6     1    1
    33    48    53    1
    34    20    32    1
    35    20    21   ar
    36     4     3   ar
    37     1     2   ar
    38    32    33   ar
    39    59    60    1
    40    59    61    1
    41    34    33   ar
    42    34    42    1
    43    11     8    1
    44    43    45    1
    45    43    42    1
    46    43    44    1
    47    33    37    1
    48     3     2   ar
    49     3    12    1
    50     2     7    1
    51    53    54    1
    52    41    38    1
    53    12    13    1
    54     8     7    1
    55     8    10    1
    56     8     9    1
    57    37    38    1
    58    56    54    1
    59    54    57    1
    60    54    55    1
    61    38    40    1
    62    38    39    1
    63    13    15    1
    64    13    16    1
    65    13    14    1
