@<TRIPOS>MOLECULE
mol_data/opt/m06hf/geoms/mol2/5ll5ll5ll-.out
 47 49 0 0 0
SMALL
GASTEIGER

@<TRIPOS>ATOM
      1 C          -1.3489   -2.2641   -1.2557 C.ar    1  LIG1        0.0218
      2 C          -0.5845   -2.2201   -0.1325 C.ar    1  LIG1        0.1691
      3 C          -0.1649   -0.8764    0.1980 C.ar    1  LIG1        0.1768
      4 C          -0.6180    0.0533   -0.6830 C.ar    1  LIG1        0.0749
      5 S          -1.5648   -0.6852   -1.9374 S.2     1  LIG1       -0.0885
      6 H          -1.7979   -3.1212   -1.7279 H       1  LIG1        0.0731
      7 O          -0.1959   -3.2348    0.6712 O.3     1  LIG1       -0.4909
      8 C          -0.6103   -4.5276    0.2670 C.3     1  LIG1        0.0790
      9 H          -0.2009   -5.2212    0.9956 H       1  LIG1        0.0660
     10 H          -1.7017   -4.5908    0.2615 H       1  LIG1        0.0660
     11 H          -0.2191   -4.7545   -0.7280 H       1  LIG1        0.0660
     12 O           0.6437   -0.5990    1.2528 O.3     1  LIG1       -0.4903
     13 C          -0.0231   -0.6763    2.5170 C.3     1  LIG1        0.0790
     14 H           0.7267   -0.4439    3.2686 H       1  LIG1        0.0660
     15 H          -0.8308    0.0567    2.5473 H       1  LIG1        0.0660
     16 H          -0.4126   -1.6834    2.6688 H       1  LIG1        0.0660
     17 C          -0.4047    1.5079   -0.6305 C.ar    1  LIG1        0.0755
     18 C           0.7059    2.2674   -0.8662 C.ar    1  LIG1        0.1775
     19 C           0.4484    3.6828   -0.6947 C.ar    1  LIG1        0.1775
     20 C          -0.8312    3.9642   -0.3371 C.ar    1  LIG1        0.0755
     21 S          -1.7617    2.5116   -0.1712 S.2     1  LIG1       -0.0794
     22 O           1.9490    1.9297   -1.2522 O.3     1  LIG1       -0.4903
     23 C           2.2917    0.5511   -1.3568 C.3     1  LIG1        0.0790
     24 H           3.3267    0.5393   -1.6875 H       1  LIG1        0.0660
     25 H           2.1953    0.0670   -0.3839 H       1  LIG1        0.0660
     26 H           1.6557    0.0557   -2.0933 H       1  LIG1        0.0660
     27 O           1.4158    4.6228   -0.8522 O.3     1  LIG1       -0.4903
     28 C           1.7241    4.8983   -2.2218 C.3     1  LIG1        0.0790
     29 H           2.5135    5.6452   -2.2091 H       1  LIG1        0.0660
     30 H           2.0713    3.9885   -2.7119 H       1  LIG1        0.0660
     31 H           0.8377    5.2913   -2.7227 H       1  LIG1        0.0660
     32 C          -1.4069    5.2981   -0.1498 C.ar    1  LIG1        0.0749
     33 C          -0.9407    6.3580    0.5744 C.ar    1  LIG1        0.1768
     34 C          -1.7540    7.5476    0.3937 C.ar    1  LIG1        0.1691
     35 C          -2.7986    7.3491   -0.4433 C.ar    1  LIG1        0.0218
     36 S          -2.8467    5.7328   -1.0381 S.2     1  LIG1       -0.0885
     37 H          -3.5527    8.0721   -0.7066 H       1  LIG1        0.0731
     38 O           0.1057    6.4443    1.4171 O.3     1  LIG1       -0.4903
     39 C           0.5543    5.2690    2.0874 C.3     1  LIG1        0.0790
     40 H           1.0550    5.6209    2.9863 H       1  LIG1        0.0660
     41 H          -0.3016    4.6446    2.3529 H       1  LIG1        0.0660
     42 H           1.2503    4.7183    1.4575 H       1  LIG1        0.0660
     43 O          -1.5058    8.7114    1.0492 O.3     1  LIG1       -0.4909
     44 C          -0.2951    9.3554    0.6477 C.3     1  LIG1        0.0790
     45 H          -0.2232   10.2600    1.2463 H       1  LIG1        0.0660
     46 H           0.5587    8.7053    0.8386 H       1  LIG1        0.0660
     47 H          -0.3480    9.6112   -0.4126 H       1  LIG1        0.0660
@<TRIPOS>BOND
     1    31    28    1
     2    30    28    1
     3    28    29    1
     4    28    27    1
     5    26    23    1
     6     5     1   ar
     7     5     4   ar
     8     6     1    1
     9    24    23    1
    10    23    22    1
    11    23    25    1
    12     1     2   ar
    13    22    18    1
    14    36    35   ar
    15    36    32   ar
    16    18    19   ar
    17    18    17   ar
    18    27    19    1
    19    11     8    1
    20    37    35    1
    21    19    20   ar
    22     4    17    1
    23     4     3   ar
    24    17    21   ar
    25    35    34   ar
    26    47    44    1
    27    20    21   ar
    28    20    32    1
    29    32    33   ar
    30     2     3   ar
    31     2     7    1
    32     3    12    1
    33    10     8    1
    34     8     7    1
    35     8     9    1
    36    34    33   ar
    37    34    43    1
    38    33    38    1
    39    44    46    1
    40    44    43    1
    41    44    45    1
    42    12    13    1
    43    38    39    1
    44    42    39    1
    45    39    41    1
    46    39    40    1
    47    13    15    1
    48    13    16    1
    49    13    14    1
