@<TRIPOS>MOLECULE
mol_data/opt/m06hf/geoms/mol2/5ll5ll-5ll-.out
 47 49 0 0 0
SMALL
GASTEIGER

@<TRIPOS>ATOM
      1 C          -1.6301   -1.8375   -1.7849 C.ar    1  LIG1        0.0218
      2 C          -0.7821   -2.0828   -0.7522 C.ar    1  LIG1        0.1691
      3 C          -0.2102   -0.8725   -0.2074 C.ar    1  LIG1        0.1768
      4 C          -0.6420    0.2506   -0.8409 C.ar    1  LIG1        0.0749
      5 S          -1.7384   -0.1419   -2.1274 S.2     1  LIG1       -0.0885
      6 H          -2.1959   -2.5410   -2.3716 H       1  LIG1        0.0731
      7 O          -0.4387   -3.2647   -0.1951 O.3     1  LIG1       -0.4909
      8 C          -1.0136   -4.4140   -0.7912 C.3     1  LIG1        0.0790
      9 H          -0.6295   -5.2681   -0.2410 H       1  LIG1        0.0660
     10 H          -2.1032   -4.3762   -0.7117 H       1  LIG1        0.0660
     11 H          -0.7186   -4.4813   -1.8413 H       1  LIG1        0.0660
     12 O           0.6874   -0.8770    0.8120 O.3     1  LIG1       -0.4903
     13 C           0.0919   -1.1065    2.0925 C.3     1  LIG1        0.0790
     14 H           0.9048   -1.0698    2.8133 H       1  LIG1        0.0660
     15 H          -0.6366   -0.3215    2.3030 H       1  LIG1        0.0660
     16 H          -0.3846   -2.0871    2.1086 H       1  LIG1        0.0660
     17 C          -0.2974    1.6302   -0.4894 C.ar    1  LIG1        0.0755
     18 C           0.9265    2.1955   -0.2657 C.ar    1  LIG1        0.1775
     19 C           0.8221    3.5607    0.2057 C.ar    1  LIG1        0.1775
     20 C          -0.4568    4.0039    0.3136 C.ar    1  LIG1        0.0755
     21 S          -1.5823    2.7693   -0.1628 S.2     1  LIG1       -0.0794
     22 O           2.1651    1.6938   -0.4177 O.3     1  LIG1       -0.4903
     23 C           2.3771    0.6353   -1.3488 C.3     1  LIG1        0.0790
     24 H           3.4246    0.7036   -1.6325 H       1  LIG1        0.0660
     25 H           2.1740   -0.3256   -0.8788 H       1  LIG1        0.0660
     26 H           1.7405    0.7765   -2.2248 H       1  LIG1        0.0660
     27 O           1.9168    4.3245    0.4524 O.3     1  LIG1       -0.4903
     28 C           2.5905    3.9833    1.6675 C.3     1  LIG1        0.0790
     29 H           3.4616    4.6312    1.7214 H       1  LIG1        0.0660
     30 H           1.9281    4.1684    2.5150 H       1  LIG1        0.0660
     31 H           2.8978    2.9373    1.6396 H       1  LIG1        0.0660
     32 C          -0.9062    5.3142    0.8000 C.ar    1  LIG1        0.0749
     33 C          -0.6524    6.5813    0.3564 C.ar    1  LIG1        0.1768
     34 C          -1.2396    7.5929    1.2184 C.ar    1  LIG1        0.1691
     35 C          -1.9152    7.0686    2.2664 C.ar    1  LIG1        0.0218
     36 S          -1.8569    5.3472    2.2681 S.2     1  LIG1       -0.0885
     37 H          -2.4338    7.6212    3.0323 H       1  LIG1        0.0731
     38 O           0.0092    7.0245   -0.7281 O.3     1  LIG1       -0.4903
     39 C           0.4089    6.0946   -1.7301 C.3     1  LIG1        0.0790
     40 H           0.7027    6.7016   -2.5828 H       1  LIG1        0.0660
     41 H           1.2526    5.5036   -1.3772 H       1  LIG1        0.0660
     42 H          -0.4294    5.4480   -1.9995 H       1  LIG1        0.0660
     43 O          -1.0898    8.9250    0.9921 O.3     1  LIG1       -0.4909
     44 C          -1.8007    9.4042   -0.1503 C.3     1  LIG1        0.0790
     45 H          -1.6091   10.4733   -0.1974 H       1  LIG1        0.0660
     46 H          -1.4356    8.9151   -1.0529 H       1  LIG1        0.0660
     47 H          -2.8698    9.2190   -0.0242 H       1  LIG1        0.0660
@<TRIPOS>BOND
     1    40    39    1
     2     6     1    1
     3    26    23    1
     4     5     1   ar
     5     5     4   ar
     6    42    39    1
     7    11     8    1
     8     1     2   ar
     9    39    41    1
    10    39    38    1
    11    24    23    1
    12    23    25    1
    13    23    22    1
    14    46    44    1
    15     4    17    1
    16     4     3   ar
    17     8    10    1
    18     8     9    1
    19     8     7    1
    20     2     3   ar
    21     2     7    1
    22    38    33    1
    23    17    18   ar
    24    17    21   ar
    25    22    18    1
    26    18    19   ar
    27     3    12    1
    28    45    44    1
    29    21    20   ar
    30    44    47    1
    31    44    43    1
    32    19    20   ar
    33    19    27    1
    34    20    32    1
    35    33    32   ar
    36    33    34   ar
    37    27    28    1
    38    32    36   ar
    39    12    13    1
    40    43    34    1
    41    34    35   ar
    42    31    28    1
    43    28    29    1
    44    28    30    1
    45    13    16    1
    46    13    15    1
    47    13    14    1
    48    35    36   ar
    49    35    37    1
