@<TRIPOS>MOLECULE
mol_data/opt/m06hf/geoms/mol2/5ll5ll-5ll-5ll-.out
 62 65 0 0 0
SMALL
GASTEIGER

@<TRIPOS>ATOM
      1 C          -1.9810   -2.2613   -0.0297 C.ar    1  LIG1        0.0218
      2 C          -0.7101   -2.2026   -0.5085 C.ar    1  LIG1        0.1691
      3 C          -0.1328   -0.8831   -0.3811 C.ar    1  LIG1        0.1768
      4 C          -0.9780    0.0124    0.1954 C.ar    1  LIG1        0.0749
      5 S          -2.4931   -0.7313    0.5992 S.2     1  LIG1       -0.0885
      6 H          -2.6490   -3.1051    0.0002 H       1  LIG1        0.0731
      7 O           0.0314   -3.1830   -1.0709 O.3     1  LIG1       -0.4909
      8 C          -0.6024   -4.4457   -1.1744 C.3     1  LIG1        0.0790
      9 H           0.1158   -5.1110   -1.6444 H       1  LIG1        0.0660
     10 H          -0.8630   -4.8186   -0.1807 H       1  LIG1        0.0660
     11 H          -1.5023   -4.3679   -1.7902 H       1  LIG1        0.0660
     12 O           1.1376   -0.5926   -0.7633 O.3     1  LIG1       -0.4903
     13 C           1.3071   -0.5249   -2.1829 C.3     1  LIG1        0.0790
     14 H           2.3540   -0.2856   -2.3502 H       1  LIG1        0.0660
     15 H           1.0620   -1.4881   -2.6313 H       1  LIG1        0.0660
     16 H           0.6685    0.2614   -2.5890 H       1  LIG1        0.0660
     17 C          -0.7265    1.4418    0.4179 C.ar    1  LIG1        0.0755
     18 C           0.2490    2.0815    1.1300 C.ar    1  LIG1        0.1775
     19 C           0.1634    3.5216    1.0006 C.ar    1  LIG1        0.1775
     20 C          -0.8576    3.9384    0.2082 C.ar    1  LIG1        0.0755
     21 S          -1.7450    2.5893   -0.4196 S.2     1  LIG1       -0.0794
     22 O           1.2161    1.6091    1.9357 O.3     1  LIG1       -0.4903
     23 C           1.1970    0.2366    2.3176 C.3     1  LIG1        0.0790
     24 H           1.8990    0.1603    3.1444 H       1  LIG1        0.0660
     25 H           0.1952   -0.0489    2.6463 H       1  LIG1        0.0660
     26 H           1.5211   -0.3892    1.4870 H       1  LIG1        0.0660
     27 O           1.0537    4.3570    1.5948 O.3     1  LIG1       -0.4903
     28 C           0.8410    4.5185    3.0010 C.3     1  LIG1        0.0790
     29 H           1.6193    5.1929    3.3480 H       1  LIG1        0.0660
     30 H          -0.1442    4.9562    3.1722 H       1  LIG1        0.0660
     31 H           0.9257    3.5531    3.4992 H       1  LIG1        0.0660
     32 C          -1.2614    5.3261   -0.0585 C.ar    1  LIG1        0.0755
     33 C          -0.6065    6.3596   -0.6670 C.ar    1  LIG1        0.1775
     34 C          -1.3792    7.5848   -0.6449 C.ar    1  LIG1        0.1775
     35 C          -2.5851    7.4589   -0.0329 C.ar    1  LIG1        0.0755
     36 S          -2.8156    5.8455    0.5568 S.2     1  LIG1       -0.0794
     37 O           0.5788    6.4152   -1.2991 O.3     1  LIG1       -0.4903
     38 C           1.3259    5.2165   -1.4845 C.3     1  LIG1        0.0790
     39 H           2.1433    5.4900   -2.1469 H       1  LIG1        0.0660
     40 H           1.7119    4.8638   -0.5290 H       1  LIG1        0.0660
     41 H           0.7016    4.4524   -1.9531 H       1  LIG1        0.0660
     42 O          -0.9148    8.7466   -1.1730 O.3     1  LIG1       -0.4903
     43 C          -1.0134    8.8025   -2.5989 C.3     1  LIG1        0.0790
     44 H          -0.6219    9.7734   -2.8910 H       1  LIG1        0.0660
     45 H          -0.4175    8.0042   -3.0420 H       1  LIG1        0.0660
     46 H          -2.0597    8.7118   -2.8960 H       1  LIG1        0.0660
     47 C          -3.6092    8.4984    0.0931 C.ar    1  LIG1        0.0749
     48 C          -3.4912    9.7924    0.5152 C.ar    1  LIG1        0.1768
     49 C          -4.7363   10.5284    0.3852 C.ar    1  LIG1        0.1691
     50 C          -5.7433    9.7753   -0.1147 C.ar    1  LIG1        0.0218
     51 S          -5.2361    8.1604   -0.4411 S.2     1  LIG1       -0.0885
     52 H          -6.7611   10.0903   -0.2731 H       1  LIG1        0.0731
     53 O          -2.4348   10.4445    1.0371 O.3     1  LIG1       -0.4903
     54 C          -1.4489    9.7043    1.7532 C.3     1  LIG1        0.0790
     55 H          -1.0098   10.4081    2.4566 H       1  LIG1        0.0660
     56 H          -1.9210    8.8796    2.2908 H       1  LIG1        0.0660
     57 H          -0.6904    9.3305    1.0681 H       1  LIG1        0.0660
     58 O          -4.8638   11.8224    0.7802 O.3     1  LIG1       -0.4909
     59 C          -4.1210   12.7413   -0.0225 C.3     1  LIG1        0.0790
     60 H          -4.2908   13.7243    0.4097 H       1  LIG1        0.0660
     61 H          -3.0598   12.4943    0.0065 H       1  LIG1        0.0660
     62 H          -4.4892   12.7139   -1.0503 H       1  LIG1        0.0660
@<TRIPOS>BOND
     1    45    43    1
     2    46    43    1
     3    44    43    1
     4    15    13    1
     5    43    42    1
     6    16    13    1
     7    14    13    1
     8    13    12    1
     9    39    38    1
    10    41    38    1
    11    11     8    1
    12     9     8    1
    13    38    37    1
    14    38    40    1
    15    37    33    1
    16     8     7    1
    17     8    10    1
    18    42    34    1
    19     7     2    1
    20    62    59    1
    21    12     3    1
    22    33    34   ar
    23    33    32   ar
    24    34    35   ar
    25     2     3   ar
    26     2     1   ar
    27    51    50   ar
    28    51    47   ar
    29    21    20   ar
    30    21    17   ar
    31     3     4   ar
    32    52    50    1
    33    50    49   ar
    34    32    20    1
    35    32    36   ar
    36    35    47    1
    37    35    36   ar
    38     1     6    1
    39     1     5   ar
    40    59    61    1
    41    59    60    1
    42    59    58    1
    43    47    48   ar
    44     4    17    1
    45     4     5   ar
    46    20    19   ar
    47    49    48   ar
    48    49    58    1
    49    17    18   ar
    50    48    53    1
    51    19    18   ar
    52    19    27    1
    53    53    54    1
    54    57    54    1
    55    18    22    1
    56    26    23    1
    57    27    28    1
    58    54    56    1
    59    54    55    1
    60    22    23    1
    61    23    25    1
    62    23    24    1
    63    28    30    1
    64    28    29    1
    65    28    31    1
