@<TRIPOS>MOLECULE
mol_data/opt/m06hf/geoms/mol2/5ll5ll5ll-5ll-.out
 62 65 0 0 0
SMALL
GASTEIGER

@<TRIPOS>ATOM
      1 C          -2.0206   -2.2885   -0.4559 C.ar    1  LIG1        0.0218
      2 C          -0.8401   -2.2464    0.2168 C.ar    1  LIG1        0.1691
      3 C          -0.2391   -0.9315    0.1984 C.ar    1  LIG1        0.1768
      4 C          -0.9779   -0.0206   -0.4899 C.ar    1  LIG1        0.0749
      5 S          -2.4142   -0.7464   -1.1406 S.2     1  LIG1       -0.0885
      6 H          -2.6841   -3.1242   -0.5992 H       1  LIG1        0.0731
      7 O          -0.2027   -3.2389    0.8768 O.3     1  LIG1       -0.4909
      8 C          -0.8270   -4.5094    0.8249 C.3     1  LIG1        0.0790
      9 H          -0.1805   -5.1903    1.3708 H       1  LIG1        0.0660
     10 H          -1.8117   -4.4670    1.2975 H       1  LIG1        0.0660
     11 H          -0.9266   -4.8377   -0.2128 H       1  LIG1        0.0660
     12 O           0.9578   -0.6593    0.7798 O.3     1  LIG1       -0.4903
     13 C           0.8930   -0.5739    2.2063 C.3     1  LIG1        0.0790
     14 H           1.9034   -0.3554    2.5421 H       1  LIG1        0.0660
     15 H           0.2150    0.2313    2.4937 H       1  LIG1        0.0660
     16 H           0.5551   -1.5249    2.6188 H       1  LIG1        0.0660
     17 C          -0.6750    1.4010   -0.6643 C.ar    1  LIG1        0.0755
     18 C           0.4893    2.0078   -1.0433 C.ar    1  LIG1        0.1775
     19 C           0.3973    3.4551   -1.0095 C.ar    1  LIG1        0.1775
     20 C          -0.8276    3.8981   -0.6156 C.ar    1  LIG1        0.0755
     21 S          -1.8993    2.5796   -0.2683 S.2     1  LIG1       -0.0794
     22 O           1.6457    1.4682   -1.4732 O.3     1  LIG1       -0.4903
     23 C           1.6098    0.2130   -2.1490 C.3     1  LIG1        0.0790
     24 H           2.4885    0.2017   -2.7895 H       1  LIG1        0.0660
     25 H           1.6577   -0.6017   -1.4292 H       1  LIG1        0.0660
     26 H           0.7023    0.1418   -2.7517 H       1  LIG1        0.0660
     27 O           1.3972    4.2652   -1.4216 O.3     1  LIG1       -0.4903
     28 C           2.5698    4.2187   -0.6033 C.3     1  LIG1        0.0790
     29 H           3.2367    4.9796   -1.0005 H       1  LIG1        0.0660
     30 H           2.3012    4.4611    0.4250 H       1  LIG1        0.0660
     31 H           3.0298    3.2331   -0.6683 H       1  LIG1        0.0660
     32 C          -1.2675    5.2890   -0.5444 C.ar    1  LIG1        0.0755
     33 C          -0.5857    6.3410   -0.0119 C.ar    1  LIG1        0.1775
     34 C          -1.3021    7.5849   -0.1293 C.ar    1  LIG1        0.1775
     35 C          -2.5107    7.4530   -0.7417 C.ar    1  LIG1        0.0755
     36 S          -2.7943    5.8025   -1.1964 S.2     1  LIG1       -0.0794
     37 O           0.6400    6.2597    0.5735 O.3     1  LIG1       -0.4903
     38 C           0.5994    6.4738    1.9877 C.3     1  LIG1        0.0790
     39 H           1.6235    6.3725    2.3394 H       1  LIG1        0.0660
     40 H           0.2221    7.4747    2.2026 H       1  LIG1        0.0660
     41 H          -0.0356    5.7179    2.4542 H       1  LIG1        0.0660
     42 O          -0.8100    8.7590    0.3566 O.3     1  LIG1       -0.4903
     43 C           0.2184    9.3122   -0.4743 C.3     1  LIG1        0.0790
     44 H           0.5431   10.2274    0.0139 H       1  LIG1        0.0660
     45 H           1.0451    8.6052   -0.5545 H       1  LIG1        0.0660
     46 H          -0.1917    9.5323   -1.4610 H       1  LIG1        0.0660
     47 C          -3.4594    8.5224   -1.0602 C.ar    1  LIG1        0.0749
     48 C          -3.9739    9.5073   -0.2654 C.ar    1  LIG1        0.1768
     49 C          -4.8206   10.4250   -1.0059 C.ar    1  LIG1        0.1691
     50 C          -4.9276   10.1030   -2.3159 C.ar    1  LIG1        0.0218
     51 S          -4.0174    8.6923   -2.7050 S.2     1  LIG1       -0.0885
     52 H          -5.5197   10.6166   -3.0548 H       1  LIG1        0.0731
     53 O          -3.8361    9.7213    1.0579 O.3     1  LIG1       -0.4903
     54 C          -3.5622    8.6152    1.9122 C.3     1  LIG1        0.0790
     55 H          -3.9254    8.9095    2.8941 H       1  LIG1        0.0660
     56 H          -4.0982    7.7307    1.5622 H       1  LIG1        0.0660
     57 H          -2.4911    8.4233    1.9477 H       1  LIG1        0.0660
     58 O          -5.4664   11.4625   -0.4113 O.3     1  LIG1       -0.4909
     59 C          -4.5906   12.4975    0.0389 C.3     1  LIG1        0.0790
     60 H          -5.2278   13.2609    0.4781 H       1  LIG1        0.0660
     61 H          -3.8980   12.1068    0.7844 H       1  LIG1        0.0660
     62 H          -4.0412   12.9104   -0.8100 H       1  LIG1        0.0660
@<TRIPOS>BOND
     1    52    50    1
     2    24    23    1
     3    26    23    1
     4    51    50   ar
     5    51    47   ar
     6    50    49   ar
     7    23    22    1
     8    23    25    1
     9    22    18    1
    10    46    43    1
    11    27    19    1
    12    27    28    1
    13    36    35   ar
    14    36    32   ar
    15     5     4   ar
    16     5     1   ar
    17    47    35    1
    18    47    48   ar
    19    18    19   ar
    20    18    17   ar
    21    19    20   ar
    22    49    58    1
    23    49    48   ar
    24    29    28    1
    25    62    59    1
    26    35    34   ar
    27    31    28    1
    28    17     4    1
    29    17    21   ar
    30    20    32    1
    31    20    21   ar
    32    28    30    1
    33     6     1    1
    34    45    43    1
    35    32    33   ar
    36     4     3   ar
    37    43    44    1
    38    43    42    1
    39     1     2   ar
    40    58    59    1
    41    48    53    1
    42    11     8    1
    43    34    33   ar
    44    34    42    1
    45    33    37    1
    46    59    60    1
    47    59    61    1
    48     3     2   ar
    49     3    12    1
    50     2     7    1
    51    37    38    1
    52    12    13    1
    53     8     7    1
    54     8    10    1
    55     8     9    1
    56    53    54    1
    57    56    54    1
    58    54    57    1
    59    54    55    1
    60    38    40    1
    61    38    39    1
    62    38    41    1
    63    13    15    1
    64    13    14    1
    65    13    16    1
