@<TRIPOS>MOLECULE
mol_data/opt/m06hf/geoms/mol2/5ll5ll5ll5ll.out
 62 65 0 0 0
SMALL
GASTEIGER

@<TRIPOS>ATOM
      1 C          -1.8319   -2.1375   -0.9922 C.ar    1  LIG1        0.0218
      2 C          -0.7255   -2.1712   -0.2036 C.ar    1  LIG1        0.1691
      3 C          -0.1888   -0.8532    0.0518 C.ar    1  LIG1        0.1768
      4 C          -0.9000    0.1356   -0.5522 C.ar    1  LIG1        0.0749
      5 S          -2.2331   -0.5164   -1.4543 S.2     1  LIG1       -0.0885
      6 H          -2.4352   -2.9598   -1.3377 H       1  LIG1        0.0731
      7 O          -0.1075   -3.2386    0.3487 O.3     1  LIG1       -0.4909
      8 C          -0.6593   -4.5026    0.0253 C.3     1  LIG1        0.0790
      9 H          -0.0440   -5.2425    0.5286 H       1  LIG1        0.0660
     10 H          -1.6909   -4.5679    0.3809 H       1  LIG1        0.0660
     11 H          -0.6283   -4.6615   -1.0554 H       1  LIG1        0.0660
     12 O           0.9368   -0.6433    0.7813 O.3     1  LIG1       -0.4903
     13 C           0.7495   -0.8140    2.1901 C.3     1  LIG1        0.0790
     14 H           1.7152   -0.6173    2.6482 H       1  LIG1        0.0660
     15 H           0.0072   -0.0986    2.5482 H       1  LIG1        0.0660
     16 H           0.4313   -1.8353    2.4008 H       1  LIG1        0.0660
     17 C          -0.6585    1.5802   -0.4447 C.ar    1  LIG1        0.0755
     18 C           0.4360    2.3340   -0.7617 C.ar    1  LIG1        0.1775
     19 C           0.2685    3.7240   -0.3912 C.ar    1  LIG1        0.1775
     20 C          -0.9298    3.9927    0.1878 C.ar    1  LIG1        0.0755
     21 S          -1.8932    2.5579    0.3185 S.2     1  LIG1       -0.0794
     22 O           1.5877    2.0126   -1.3771 O.3     1  LIG1       -0.4903
     23 C           1.7068    0.7425   -2.0108 C.3     1  LIG1        0.0790
     24 H           2.5940    0.8158   -2.6347 H       1  LIG1        0.0660
     25 H           1.8338   -0.0393   -1.2633 H       1  LIG1        0.0660
     26 H           0.8273    0.5457   -2.6277 H       1  LIG1        0.0660
     27 O           1.2408    4.6526   -0.5851 O.3     1  LIG1       -0.4903
     28 C           1.3728    5.0681   -1.9474 C.3     1  LIG1        0.0790
     29 H           2.1848    5.7900   -1.9658 H       1  LIG1        0.0660
     30 H           1.6146    4.2090   -2.5734 H       1  LIG1        0.0660
     31 H           0.4424    5.5342   -2.2780 H       1  LIG1        0.0660
     32 C          -1.4132    5.3091    0.6119 C.ar    1  LIG1        0.0755
     33 C          -0.8172    6.2459    1.4090 C.ar    1  LIG1        0.1775
     34 C          -1.6028    7.4627    1.5105 C.ar    1  LIG1        0.1775
     35 C          -2.7516    7.4178    0.7857 C.ar    1  LIG1        0.0755
     36 S          -2.9368    5.8916   -0.0163 S.2     1  LIG1       -0.0794
     37 O           0.3323    6.2001    2.1041 O.3     1  LIG1       -0.4903
     38 C           0.8573    4.9357    2.5032 C.3     1  LIG1        0.0790
     39 H           1.4874    5.1440    3.3647 H       1  LIG1        0.0660
     40 H           0.0420    4.2670    2.7862 H       1  LIG1        0.0660
     41 H           1.4478    4.5026    1.6976 H       1  LIG1        0.0660
     42 O          -1.2348    8.4961    2.3006 O.3     1  LIG1       -0.4903
     43 C          -0.1364    9.2611    1.7921 C.3     1  LIG1        0.0790
     44 H           0.1195    9.9707    2.5746 H       1  LIG1        0.0660
     45 H           0.7106    8.6050    1.5881 H       1  LIG1        0.0660
     46 H          -0.4534    9.7924    0.8933 H       1  LIG1        0.0660
     47 C          -3.7136    8.5134    0.6358 C.ar    1  LIG1        0.0749
     48 C          -3.4873    9.7124    0.0278 C.ar    1  LIG1        0.1768
     49 C          -4.6145   10.6115    0.1365 C.ar    1  LIG1        0.1691
     50 C          -5.6529   10.0591    0.8128 C.ar    1  LIG1        0.0218
     51 S          -5.2951    8.4608    1.3470 S.2     1  LIG1       -0.0885
     52 H          -6.6015   10.5253    1.0208 H       1  LIG1        0.0731
     53 O          -2.3622   10.1052   -0.6304 O.3     1  LIG1       -0.4903
     54 C          -1.8522    9.1961   -1.6084 C.3     1  LIG1        0.0790
     55 H          -1.1806    9.7800   -2.2344 H       1  LIG1        0.0660
     56 H          -1.3070    8.3792   -1.1338 H       1  LIG1        0.0660
     57 H          -2.6740    8.7927   -2.2037 H       1  LIG1        0.0660
     58 O          -4.6138   11.8765   -0.3642 O.3     1  LIG1       -0.4909
     59 C          -4.5719   11.9370   -1.7884 C.3     1  LIG1        0.0790
     60 H          -4.6225   12.9916   -2.0481 H       1  LIG1        0.0660
     61 H          -3.6410   11.5061   -2.1581 H       1  LIG1        0.0660
     62 H          -5.4287   11.4055   -2.2084 H       1  LIG1        0.0660
@<TRIPOS>BOND
     1    24    23    1
     2    26    23    1
     3    30    28    1
     4    31    28    1
     5    55    54    1
     6    62    59    1
     7    57    54    1
     8    61    59    1
     9    60    59    1
    10    23    22    1
    11    23    25    1
    12    29    28    1
    13    28    27    1
    14    59    58    1
    15    54    56    1
    16    54    53    1
    17     5     1   ar
    18     5     4   ar
    19    22    18    1
    20     6     1    1
    21    11     8    1
    22     1     2   ar
    23    18    17   ar
    24    18    19   ar
    25    53    48    1
    26    27    19    1
    27     4    17    1
    28     4     3   ar
    29    17    21   ar
    30    19    20   ar
    31    58    49    1
    32     2     3   ar
    33     2     7    1
    34    36    32   ar
    35    36    35   ar
    36     8     7    1
    37     8    10    1
    38     8     9    1
    39    48    49   ar
    40    48    47   ar
    41     3    12    1
    42    49    50   ar
    43    20    21   ar
    44    20    32    1
    45    32    33   ar
    46    47    35    1
    47    47    51   ar
    48    12    13    1
    49    35    34   ar
    50    50    52    1
    51    50    51   ar
    52    46    43    1
    53    33    34   ar
    54    33    37    1
    55    34    42    1
    56    45    43    1
    57    41    38    1
    58    43    42    1
    59    43    44    1
    60    37    38    1
    61    13    16    1
    62    13    15    1
    63    13    14    1
    64    38    40    1
    65    38    39    1
