@<TRIPOS>MOLECULE
mol_data/opt/m06hf/geoms/mol2/5ll5ll5ll-5ll.out
 62 65 0 0 0
SMALL
GASTEIGER

@<TRIPOS>ATOM
      1 C          -1.8364   -2.2301   -0.3981 C.ar    1  LIG1        0.0218
      2 C          -0.7454   -2.1610    0.4099 C.ar    1  LIG1        0.1691
      3 C          -0.1667   -0.8364    0.4431 C.ar    1  LIG1        0.1768
      4 C          -0.8306    0.0526   -0.3429 C.ar    1  LIG1        0.0749
      5 S          -2.1712   -0.7036   -1.1438 S.2     1  LIG1       -0.0885
      6 H          -2.4646   -3.0791   -0.6070 H       1  LIG1        0.0731
      7 O          -0.1762   -3.1346    1.1548 O.3     1  LIG1       -0.4909
      8 C          -0.7960   -4.4059    1.0763 C.3     1  LIG1        0.0790
      9 H          -0.2242   -5.0655    1.7224 H       1  LIG1        0.0660
     10 H          -1.8309   -4.3443    1.4230 H       1  LIG1        0.0660
     11 H          -0.7696   -4.7746    0.0478 H       1  LIG1        0.0660
     12 O           0.9483   -0.5359    1.1579 O.3     1  LIG1       -0.4903
     13 C           0.7167   -0.4507    2.5678 C.3     1  LIG1        0.0790
     14 H           1.6747   -0.2013    3.0162 H       1  LIG1        0.0660
     15 H          -0.0136    0.3347    2.7703 H       1  LIG1        0.0660
     16 H           0.3610   -1.4110    2.9424 H       1  LIG1        0.0660
     17 C          -0.5326    1.4817   -0.4927 C.ar    1  LIG1        0.0755
     18 C           0.6144    2.1172   -0.8785 C.ar    1  LIG1        0.1775
     19 C           0.4977    3.5578   -0.7859 C.ar    1  LIG1        0.1775
     20 C          -0.7152    3.9791   -0.3437 C.ar    1  LIG1        0.0755
     21 S          -1.7540    2.6337   -0.0060 S.2     1  LIG1       -0.0794
     22 O           1.7783    1.6385   -1.3511 O.3     1  LIG1       -0.4903
     23 C           1.8566    0.2796   -1.7732 C.3     1  LIG1        0.0790
     24 H           2.7621    0.2180   -2.3721 H       1  LIG1        0.0660
     25 H           1.9294   -0.3790   -0.9089 H       1  LIG1        0.0660
     26 H           0.9852    0.0235   -2.3800 H       1  LIG1        0.0660
     27 O           1.5257    4.3912   -1.0899 O.3     1  LIG1       -0.4903
     28 C           1.7389    4.5460   -2.4968 C.3     1  LIG1        0.0790
     29 H           2.5825    5.2231   -2.6014 H       1  LIG1        0.0660
     30 H           1.9708    3.5793   -2.9432 H       1  LIG1        0.0660
     31 H           0.8472    4.9782   -2.9546 H       1  LIG1        0.0660
     32 C          -1.1656    5.3699   -0.2170 C.ar    1  LIG1        0.0755
     33 C          -0.6352    6.4157    0.4848 C.ar    1  LIG1        0.1775
     34 C          -1.3418    7.6553    0.2363 C.ar    1  LIG1        0.1775
     35 C          -2.3817    7.5255   -0.6282 C.ar    1  LIG1        0.0755
     36 S          -2.5459    5.8833   -1.1593 S.2     1  LIG1       -0.0794
     37 O           0.3966    6.4724    1.3448 O.3     1  LIG1       -0.4903
     38 C           0.9038    5.2659    1.9080 C.3     1  LIG1        0.0790
     39 H           1.4741    5.5742    2.7808 H       1  LIG1        0.0660
     40 H           0.0782    4.6172    2.2077 H       1  LIG1        0.0660
     41 H           1.5489    4.7596    1.1920 H       1  LIG1        0.0660
     42 O          -1.0122    8.8167    0.8569 O.3     1  LIG1       -0.4903
     43 C           0.1800    9.4189    0.3433 C.3     1  LIG1        0.0790
     44 H           0.3467   10.3126    0.9387 H       1  LIG1        0.0660
     45 H           1.0177    8.7292    0.4491 H       1  LIG1        0.0660
     46 H           0.0304    9.6845   -0.7049 H       1  LIG1        0.0660
     47 C          -3.2571    8.5992   -1.1033 C.ar    1  LIG1        0.0749
     48 C          -3.9164    9.5658   -0.3991 C.ar    1  LIG1        0.1768
     49 C          -4.5857   10.5190   -1.2664 C.ar    1  LIG1        0.1691
     50 C          -4.4213   10.2424   -2.5805 C.ar    1  LIG1        0.0218
     51 S          -3.4627    8.8300   -2.8238 S.2     1  LIG1       -0.0885
     52 H          -4.8464   10.7875   -3.4069 H       1  LIG1        0.0731
     53 O          -4.0505    9.7349    0.9301 O.3     1  LIG1       -0.4903
     54 C          -3.9883    8.5929    1.7813 C.3     1  LIG1        0.0790
     55 H          -4.5702    8.8541    2.6620 H       1  LIG1        0.0660
     56 H          -4.4310    7.7304    1.2792 H       1  LIG1        0.0660
     57 H          -2.9558    8.3877    2.0573 H       1  LIG1        0.0660
     58 O          -5.3366   11.5437   -0.7840 O.3     1  LIG1       -0.4909
     59 C          -4.5747   12.5454   -0.1084 C.3     1  LIG1        0.0790
     60 H          -5.2910   13.2861    0.2380 H       1  LIG1        0.0660
     61 H          -4.0442   12.1075    0.7374 H       1  LIG1        0.0660
     62 H          -3.8678   13.0033   -0.8038 H       1  LIG1        0.0660
@<TRIPOS>BOND
     1    52    50    1
     2    31    28    1
     3    30    28    1
     4    51    50   ar
     5    51    47   ar
     6    29    28    1
     7    50    49   ar
     8    28    27    1
     9    26    23    1
    10    24    23    1
    11    23    22    1
    12    23    25    1
    13    22    18    1
    14    49    58    1
    15    49    48   ar
    16    36    35   ar
    17    36    32   ar
    18     5     1   ar
    19     5     4   ar
    20    47    35    1
    21    47    48   ar
    22    27    19    1
    23    18    19   ar
    24    18    17   ar
    25    62    59    1
    26    19    20   ar
    27    58    59    1
    28    46    43    1
    29    35    34   ar
    30     6     1    1
    31    17     4    1
    32    17    21   ar
    33    48    53    1
    34     1     2   ar
    35    20    32    1
    36    20    21   ar
    37     4     3   ar
    38    32    33   ar
    39    59    60    1
    40    59    61    1
    41    11     8    1
    42    34    33   ar
    43    34    42    1
    44    43    45    1
    45    43    42    1
    46    43    44    1
    47     2     3   ar
    48     2     7    1
    49     3    12    1
    50    33    37    1
    51    53    54    1
    52     8     7    1
    53     8    10    1
    54     8     9    1
    55    12    13    1
    56    41    38    1
    57    56    54    1
    58    37    38    1
    59    54    57    1
    60    54    55    1
    61    38    40    1
    62    38    39    1
    63    13    15    1
    64    13    16    1
    65    13    14    1
