@<TRIPOS>MOLECULE
mol_data/opt/m06hf/geoms/mol2/5ll5ll-5ll5ll-.out
 62 65 0 0 0
SMALL
GASTEIGER

@<TRIPOS>ATOM
      1 C          -1.1365   -1.8515   -2.4381 C.ar    1  LIG1        0.0218
      2 C          -0.7689   -2.0436   -1.1437 C.ar    1  LIG1        0.1691
      3 C          -0.3558   -0.8174   -0.4999 C.ar    1  LIG1        0.1768
      4 C          -0.4233    0.2626   -1.3227 C.ar    1  LIG1        0.0749
      5 S          -0.9735   -0.1911   -2.9041 S.2     1  LIG1       -0.0885
      6 H          -1.4886   -2.5773   -3.1514 H       1  LIG1        0.0731
      7 O          -0.7616   -3.1844   -0.4208 O.3     1  LIG1       -0.4909
      8 C          -1.1900   -4.3492   -1.1041 C.3     1  LIG1        0.0790
      9 H          -1.1146   -5.1657   -0.3920 H       1  LIG1        0.0660
     10 H          -2.2254   -4.2338   -1.4353 H       1  LIG1        0.0660
     11 H          -0.5433   -4.5413   -1.9642 H       1  LIG1        0.0660
     12 O           0.0726   -0.7696    0.7885 O.3     1  LIG1       -0.4903
     13 C          -0.9963   -0.8089    1.7397 C.3     1  LIG1        0.0790
     14 H          -0.5315   -0.7443    2.7199 H       1  LIG1        0.0660
     15 H          -1.6598    0.0423    1.5777 H       1  LIG1        0.0660
     16 H          -1.5444   -1.7465    1.6409 H       1  LIG1        0.0660
     17 C          -0.1450    1.6524   -0.9495 C.ar    1  LIG1        0.0755
     18 C           0.9442    2.1949   -0.3286 C.ar    1  LIG1        0.1775
     19 C           0.7476    3.5921   -0.0011 C.ar    1  LIG1        0.1775
     20 C          -0.4607    4.0760   -0.3904 C.ar    1  LIG1        0.0755
     21 S          -1.4000    2.8472   -1.1733 S.2     1  LIG1       -0.0794
     22 O           2.1285    1.6532    0.0050 O.3     1  LIG1       -0.4903
     23 C           2.5724    0.4765   -0.6667 C.3     1  LIG1        0.0790
     24 H           3.6534    0.4702   -0.5518 H       1  LIG1        0.0660
     25 H           2.1367   -0.4069   -0.2032 H       1  LIG1        0.0660
     26 H           2.3055    0.5272   -1.7245 H       1  LIG1        0.0660
     27 O           1.7109    4.3441    0.5899 O.3     1  LIG1       -0.4903
     28 C           1.9000    4.0426    1.9762 C.3     1  LIG1        0.0790
     29 H           2.7027    4.6901    2.3183 H       1  LIG1        0.0660
     30 H           0.9804    4.2572    2.5234 H       1  LIG1        0.0660
     31 H           2.1808    2.9954    2.0923 H       1  LIG1        0.0660
     32 C          -0.9709    5.4338   -0.1821 C.ar    1  LIG1        0.0755
     33 C          -0.4080    6.6437   -0.4772 C.ar    1  LIG1        0.1775
     34 C          -1.2082    7.7503    0.0044 C.ar    1  LIG1        0.1775
     35 C          -2.3506    7.3660    0.6306 C.ar    1  LIG1        0.0755
     36 S          -2.4931    5.6365    0.6526 S.2     1  LIG1       -0.0794
     37 O           0.7267    6.9518   -1.1292 O.3     1  LIG1       -0.4903
     38 C           1.2963    6.0023   -2.0277 C.3     1  LIG1        0.0790
     39 H           1.9164    6.5839   -2.7054 H       1  LIG1        0.0660
     40 H           1.9045    5.2847   -1.4794 H       1  LIG1        0.0660
     41 H           0.5060    5.4934   -2.5835 H       1  LIG1        0.0660
     42 O          -0.8599    9.0455   -0.2077 O.3     1  LIG1       -0.4903
     43 C           0.2018    9.4936    0.6402 C.3     1  LIG1        0.0790
     44 H           0.3923   10.5271    0.3636 H       1  LIG1        0.0660
     45 H          -0.1151    9.4327    1.6829 H       1  LIG1        0.0660
     46 H           1.0909    8.8847    0.4727 H       1  LIG1        0.0660
     47 C          -3.3483    8.2460    1.2439 C.ar    1  LIG1        0.0749
     48 C          -3.9963    9.3330    0.7294 C.ar    1  LIG1        0.1768
     49 C          -4.8257    9.9980    1.7190 C.ar    1  LIG1        0.1691
     50 C          -4.7855    9.3980    2.9307 C.ar    1  LIG1        0.0218
     51 S          -3.7584    8.0140    2.9277 S.2     1  LIG1       -0.0885
     52 H          -5.3370    9.6928    3.8078 H       1  LIG1        0.0731
     53 O          -3.9963    9.8426   -0.5166 O.3     1  LIG1       -0.4903
     54 C          -3.6627    8.9976   -1.6153 C.3     1  LIG1        0.0790
     55 H          -4.1159    9.4650   -2.4860 H       1  LIG1        0.0660
     56 H          -2.5821    8.9427   -1.7337 H       1  LIG1        0.0660
     57 H          -4.0844    8.0025   -1.4602 H       1  LIG1        0.0660
     58 O          -5.5912   11.0812    1.4227 O.3     1  LIG1       -0.4909
     59 C          -4.8325   12.2575    1.1374 C.3     1  LIG1        0.0790
     60 H          -5.5566   13.0346    0.9066 H       1  LIG1        0.0660
     61 H          -4.2461   12.5391    2.0147 H       1  LIG1        0.0660
     62 H          -4.1772   12.0842    0.2836 H       1  LIG1        0.0660
@<TRIPOS>BOND
     1     6     1    1
     2     5     1   ar
     3     5     4   ar
     4    39    38    1
     5    41    38    1
     6    55    54    1
     7     1     2   ar
     8    38    40    1
     9    38    37    1
    10    11     8    1
    11    56    54    1
    12    26    23    1
    13    54    57    1
    14    54    53    1
    15    10     8    1
    16     4    17    1
    17     4     3   ar
    18    21    17   ar
    19    21    20   ar
    20     2     3   ar
    21     2     7    1
    22    37    33    1
    23     8     7    1
    24     8     9    1
    25    17    18   ar
    26    23    24    1
    27    23    25    1
    28    23    22    1
    29    53    48    1
    30     3    12    1
    31    33    32   ar
    32    33    34   ar
    33    20    32    1
    34    20    19   ar
    35    18    19   ar
    36    18    22    1
    37    42    34    1
    38    42    43    1
    39    32    36   ar
    40    19    27    1
    41    34    35   ar
    42    62    59    1
    43    44    43    1
    44    46    43    1
    45    27    28    1
    46    35    36   ar
    47    35    47    1
    48    43    45    1
    49    48    47   ar
    50    48    49   ar
    51    12    13    1
    52    60    59    1
    53    59    58    1
    54    59    61    1
    55    47    51   ar
    56    58    49    1
    57    15    13    1
    58    16    13    1
    59    49    50   ar
    60    13    14    1
    61    28    31    1
    62    28    29    1
    63    28    30    1
    64    51    50   ar
    65    50    52    1
