@<TRIPOS>MOLECULE
mol_data/opt/m06hf/geoms/mol2/5ll5ll-5ll5ll.out
 62 65 0 0 0
SMALL
GASTEIGER

@<TRIPOS>ATOM
      1 C          -1.9583   -2.2954   -0.0956 C.ar    1  LIG1        0.0218
      2 C          -0.6230   -2.1770    0.1297 C.ar    1  LIG1        0.1691
      3 C          -0.1504   -0.8231   -0.0541 C.ar    1  LIG1        0.1768
      4 C          -1.1378    0.0381   -0.4174 C.ar    1  LIG1        0.0749
      5 S          -2.6621   -0.7809   -0.5555 S.2     1  LIG1       -0.0885
      6 H          -2.5746   -3.1757   -0.0291 H       1  LIG1        0.0731
      7 O           0.2648   -3.1262    0.4993 O.3     1  LIG1       -0.4909
      8 C          -0.2666   -4.4280    0.6723 C.3     1  LIG1        0.0790
      9 H           0.5673   -5.0633    0.9567 H       1  LIG1        0.0660
     10 H          -1.0233   -4.4254    1.4613 H       1  LIG1        0.0660
     11 H          -0.7060   -4.7832   -0.2633 H       1  LIG1        0.0660
     12 O           1.1527   -0.4678    0.0924 O.3     1  LIG1       -0.4903
     13 C           1.5694   -0.3926    1.4585 C.3     1  LIG1        0.0790
     14 H           2.6160   -0.0999    1.4409 H       1  LIG1        0.0660
     15 H           0.9738    0.3588    1.9804 H       1  LIG1        0.0660
     16 H           1.4574   -1.3671    1.9347 H       1  LIG1        0.0660
     17 C          -0.9966    1.4814   -0.6267 C.ar    1  LIG1        0.0755
     18 C          -0.1070    2.1724   -1.4003 C.ar    1  LIG1        0.1775
     19 C          -0.2482    3.6093   -1.2511 C.ar    1  LIG1        0.1775
     20 C          -1.2209    3.9598   -0.3682 C.ar    1  LIG1        0.0755
     21 S          -2.0151    2.5667    0.2884 S.2     1  LIG1       -0.0794
     22 O           0.8257    1.7358   -2.2638 O.3     1  LIG1       -0.4903
     23 C           0.6619    0.4594   -2.8778 C.3     1  LIG1        0.0790
     24 H           1.2487    0.5008   -3.7921 H       1  LIG1        0.0660
     25 H           1.0374   -0.3240   -2.2221 H       1  LIG1        0.0660
     26 H          -0.3911    0.2929   -3.1133 H       1  LIG1        0.0660
     27 O           0.4832    4.4876   -1.9733 O.3     1  LIG1       -0.4903
     28 C           1.8532    4.5855   -1.5678 C.3     1  LIG1        0.0790
     29 H           2.3429    5.2003   -2.3185 H       1  LIG1        0.0660
     30 H           1.9066    5.0715   -0.5919 H       1  LIG1        0.0660
     31 H           2.3071    3.5938   -1.5424 H       1  LIG1        0.0660
     32 C          -1.5543    5.3285    0.0344 C.ar    1  LIG1        0.0755
     33 C          -0.7462    6.1920    0.7134 C.ar    1  LIG1        0.1775
     34 C          -1.3389    7.4961    0.8720 C.ar    1  LIG1        0.1775
     35 C          -2.5791    7.5908    0.3188 C.ar    1  LIG1        0.0755
     36 S          -3.0457    6.0938   -0.4238 S.2     1  LIG1       -0.0794
     37 O           0.4815    5.9449    1.2410 O.3     1  LIG1       -0.4903
     38 C           0.6112    4.7506    2.0153 C.3     1  LIG1        0.0790
     39 H           1.5110    4.8821    2.6121 H       1  LIG1        0.0660
     40 H          -0.2613    4.6324    2.6613 H       1  LIG1        0.0660
     41 H           0.7111    3.8752    1.3717 H       1  LIG1        0.0660
     42 O          -0.7004    8.5235    1.4902 O.3     1  LIG1       -0.4903
     43 C          -0.7101    8.4255    2.9159 C.3     1  LIG1        0.0790
     44 H          -0.1853    9.3030    3.2838 H       1  LIG1        0.0660
     45 H          -1.7403    8.4216    3.2763 H       1  LIG1        0.0660
     46 H          -0.1912    7.5178    3.2288 H       1  LIG1        0.0660
     47 C          -3.4896    8.7413    0.3814 C.ar    1  LIG1        0.0749
     48 C          -3.3296   10.0363   -0.0235 C.ar    1  LIG1        0.1768
     49 C          -4.4652   10.8682    0.3378 C.ar    1  LIG1        0.1691
     50 C          -5.4356   10.1860    0.9879 C.ar    1  LIG1        0.0218
     51 S          -5.0157    8.5299    1.2077 S.2     1  LIG1       -0.0885
     52 H          -6.3692   10.5879    1.3451 H       1  LIG1        0.0731
     53 O          -2.3315   10.6328   -0.7002 O.3     1  LIG1       -0.4903
     54 C          -1.3525    9.8282   -1.3517 C.3     1  LIG1        0.0790
     55 H          -0.8466   10.4968   -2.0439 H       1  LIG1        0.0660
     56 H          -0.6462    9.4348   -0.6230 H       1  LIG1        0.0660
     57 H          -1.8349    9.0151   -1.8981 H       1  LIG1        0.0660
     58 O          -4.5171   12.1979    0.0596 O.3     1  LIG1       -0.4909
     59 C          -4.6632   12.4928   -1.3304 C.3     1  LIG1        0.0790
     60 H          -4.7074   13.5765   -1.4058 H       1  LIG1        0.0660
     61 H          -3.8083   12.1106   -1.8875 H       1  LIG1        0.0660
     62 H          -5.5891   12.0519   -1.7057 H       1  LIG1        0.0660
@<TRIPOS>BOND
     1    24    23    1
     2    26    23    1
     3    23    22    1
     4    23    25    1
     5    29    28    1
     6    22    18    1
     7    55    54    1
     8    27    28    1
     9    27    19    1
    10    57    54    1
    11    61    59    1
    12    62    59    1
    13    28    31    1
    14    28    30    1
    15    60    59    1
    16    18    19   ar
    17    18    17   ar
    18    54    53    1
    19    54    56    1
    20    59    58    1
    21    19    20   ar
    22    53    48    1
    23    17     4    1
    24    17    21   ar
    25     5     4   ar
    26     5     1   ar
    27    36    32   ar
    28    36    35   ar
    29     4     3   ar
    30    20    32    1
    31    20    21   ar
    32    11     8    1
    33     1     6    1
    34     1     2   ar
    35     3    12    1
    36     3     2   ar
    37    48    49   ar
    38    48    47   ar
    39    32    33   ar
    40    58    49    1
    41    12    13    1
    42     2     7    1
    43    35    47    1
    44    35    34   ar
    45    49    50   ar
    46    47    51   ar
    47     7     8    1
    48     8     9    1
    49     8    10    1
    50    33    34   ar
    51    33    37    1
    52    34    42    1
    53    50    51   ar
    54    50    52    1
    55    37    38    1
    56    41    38    1
    57    14    13    1
    58    13    16    1
    59    13    15    1
    60    42    43    1
    61    38    39    1
    62    38    40    1
    63    43    46    1
    64    43    45    1
    65    43    44    1
