@<TRIPOS>MOLECULE
mol_data/opt/m06hf/geoms/mol2/5ll5ll-.out
 32 33 0 0 0
SMALL
GASTEIGER

@<TRIPOS>ATOM
      1 C          -2.1341   -1.9490   -0.7553 C.ar    1  LIG1        0.0218
      2 C          -0.8530   -2.0823   -0.3211 C.ar    1  LIG1        0.1691
      3 C          -0.2474   -0.8125    0.0100 C.ar    1  LIG1        0.1768
      4 C          -1.0834    0.2417   -0.1834 C.ar    1  LIG1        0.0749
      5 S          -2.6212   -0.2868   -0.7891 S.2     1  LIG1       -0.0885
      6 H          -2.8226   -2.7175   -1.0621 H       1  LIG1        0.0731
      7 O          -0.1234   -3.2079   -0.1564 O.3     1  LIG1       -0.4909
      8 C          -0.7767   -4.4173   -0.4977 C.3     1  LIG1        0.0790
      9 H          -0.0600   -5.2125   -0.3150 H       1  LIG1        0.0660
     10 H          -1.6626   -4.5590    0.1265 H       1  LIG1        0.0660
     11 H          -1.0635   -4.4063   -1.5522 H       1  LIG1        0.0660
     12 O           1.0385   -0.6974    0.4335 O.3     1  LIG1       -0.4903
     13 C           1.2230   -1.0688    1.8026 C.3     1  LIG1        0.0790
     14 H           2.2801   -0.9304    2.0135 H       1  LIG1        0.0660
     15 H           0.6206   -0.4201    2.4410 H       1  LIG1        0.0660
     16 H           0.9420   -2.1130    1.9445 H       1  LIG1        0.0660
     17 C          -0.7909    1.6487    0.1016 C.ar    1  LIG1        0.0749
     18 C           0.2820    2.4110   -0.2629 C.ar    1  LIG1        0.1768
     19 C           0.2446    3.7352    0.3335 C.ar    1  LIG1        0.1691
     20 C          -0.8450    3.9334    1.1099 C.ar    1  LIG1        0.0218
     21 S          -1.8632    2.5409    1.1534 S.2     1  LIG1       -0.0885
     22 H          -1.1028    4.8404    1.6302 H       1  LIG1        0.0731
     23 O           1.3130    2.1311   -1.0825 O.3     1  LIG1       -0.4903
     24 C           1.1508    1.1349   -2.0890 C.3     1  LIG1        0.0790
     25 H           1.8757    1.3825   -2.8609 H       1  LIG1        0.0660
     26 H           1.3576    0.1479   -1.6783 H       1  LIG1        0.0660
     27 H           0.1380    1.1782   -2.4951 H       1  LIG1        0.0660
     28 O           1.1943    4.6751    0.0861 O.3     1  LIG1       -0.4909
     29 C           2.4740    4.3533    0.6342 C.3     1  LIG1        0.0790
     30 H           3.1344    5.1716    0.3582 H       1  LIG1        0.0660
     31 H           2.4005    4.2808    1.7216 H       1  LIG1        0.0660
     32 H           2.8370    3.4153    0.2153 H       1  LIG1        0.0660
@<TRIPOS>BOND
     1    25    24    1
     2    27    24    1
     3    24    26    1
     4    24    23    1
     5    11     8    1
     6    23    18    1
     7     6     1    1
     8     5     1   ar
     9     5     4   ar
    10     1     2   ar
    11     8     9    1
    12     8     7    1
    13     8    10    1
    14     2     7    1
    15     2     3   ar
    16    18    17   ar
    17    18    19   ar
    18     4     3   ar
    19     4    17    1
    20     3    12    1
    21    28    19    1
    22    28    29    1
    23    17    21   ar
    24    32    29    1
    25    19    20   ar
    26    30    29    1
    27    12    13    1
    28    29    31    1
    29    20    21   ar
    30    20    22    1
    31    13    16    1
    32    13    14    1
    33    13    15    1
