@<TRIPOS>MOLECULE
mol_data/opt/m06hf/geoms/mol2/6aa13ld13dl-6fe-6ea4ad4hh13ih.out
 98 105 0 0 0
SMALL
GASTEIGER

@<TRIPOS>ATOM
      1 C          -4.2597   -0.7381   -3.6979 C.ar    1  LIG1        0.0283
      2 C          -2.8978   -1.0233   -3.6703 C.ar    1  LIG1       -0.0436
      3 C          -2.1380   -0.5070   -2.6244 C.ar    1  LIG1       -0.0583
      4 C          -2.7545    0.2698   -1.6526 C.ar    1  LIG1       -0.0341
      5 C          -4.1265    0.4988   -1.7775 C.ar    1  LIG1        0.0907
      6 N          -4.8643    0.0058   -2.7762 N.ar    1  LIG1       -0.2534
      7 H          -1.0765   -0.7087   -2.5652 H       1  LIG1        0.0619
      8 H          -2.4532   -1.6322   -4.4443 H       1  LIG1        0.0633
      9 H          -4.8894   -1.1220   -4.4912 H       1  LIG1        0.0830
     10 H          -2.2167    0.6915   -0.8157 H       1  LIG1        0.0639
     11 C          -4.8770    1.3083   -0.8090 C.ar    1  LIG1        0.1089
     12 C          -4.5084    2.0293    0.3098 C.ar    1  LIG1        0.1647
     13 C          -5.6944    2.6296    0.8294 C.ar    1  LIG1        0.1206
     14 C          -6.7393    2.2532   -0.0098 C.ar    1  LIG1        0.0860
     15 N          -6.2255    1.4578   -0.9691 N.ar    1  LIG1       -0.3478
     16 H          -6.6901    1.0698   -1.7815 H       1  LIG1        0.1661
     17 O          -3.2433    2.0855    0.7768 O.3     1  LIG1       -0.4916
     18 C          -2.8660    3.2742    1.4757 C.3     1  LIG1        0.0789
     19 H          -1.7805    3.2599    1.5166 H       1  LIG1        0.0660
     20 H          -3.2137    4.1540    0.9312 H       1  LIG1        0.0660
     21 H          -3.2787    3.2703    2.4835 H       1  LIG1        0.0660
     22 N          -5.9930    3.9624    3.0186 N.1     1  LIG1       -0.1907
     23 C          -5.8597    3.3781    2.0390 C.1     1  LIG1        0.1050
     24 C          -8.1587    2.5800    0.0805 C.ar    1  LIG1        0.0860
     25 C          -8.7712    3.8072    0.3084 C.ar    1  LIG1        0.1206
     26 C         -10.1806    3.5701    0.3229 C.ar    1  LIG1        0.1634
     27 C         -10.3751    2.2223    0.0880 C.ar    1  LIG1        0.0957
     28 N          -9.1288    1.6530   -0.0616 N.ar    1  LIG1       -0.3489
     29 H          -8.9779    0.6545   -0.1325 H       1  LIG1        0.1661
     30 N          -7.4626    6.0291    0.4328 N.1     1  LIG1       -0.1907
     31 C          -8.0493    5.0426    0.3907 C.1     1  LIG1        0.1050
     32 O         -11.2080    4.4192    0.5159 O.3     1  LIG1       -0.4917
     33 C         -10.8984    5.7692    0.8548 C.3     1  LIG1        0.0789
     34 H         -11.8557    6.2508    1.0300 H       1  LIG1        0.0660
     35 H         -10.2870    5.8027    1.7580 H       1  LIG1        0.0660
     36 H         -10.3767    6.2579    0.0317 H       1  LIG1        0.0660
     37 C         -11.7253    0.2432   -0.6541 C.ar    1  LIG1        0.2224
     38 C         -11.6179    1.4417    0.0801 C.ar    1  LIG1        0.0644
     39 C         -12.7306    1.8275    0.8148 C.ar    1  LIG1       -0.0299
     40 C         -13.8638    1.0081    0.8362 C.ar    1  LIG1        0.0516
     41 C         -13.8275   -0.1932    0.1152 C.ar    1  LIG1        0.0928
     42 N         -12.7732   -0.5429   -0.6231 N.ar    1  LIG1       -0.2111
     43 H         -12.7121    2.7479    1.3819 H       1  LIG1        0.0639
     44 O         -10.6856   -0.1718   -1.4387 O.3     1  LIG1       -0.4919
     45 H         -10.3612    0.5806   -1.9524 H       1  LIG1        0.2937
     46 C         -15.0068    1.3926    1.6272 C.1     1  LIG1       -0.0675
     47 C         -15.9412    1.7431    2.2962 C.1     1  LIG1       -0.1138
     48 H         -16.7672    2.0473    2.8971 H       1  LIG1        0.1232
     49 C         -14.8024   -2.4907    0.4642 C.ar    1  LIG1        0.1230
     50 C         -14.9770   -1.1427    0.1151 C.ar    1  LIG1        0.0355
     51 C         -16.2596   -0.7304   -0.2344 C.ar    1  LIG1       -0.0478
     52 C         -17.2951   -1.6527   -0.2565 C.ar    1  LIG1       -0.0350
     53 C         -17.0143   -2.9813    0.0733 C.ar    1  LIG1        0.0725
     54 N         -15.7964   -3.3751    0.4392 N.ar    1  LIG1       -0.2378
     55 H         -16.4395    0.3075   -0.4839 H       1  LIG1        0.0626
     56 C         -13.5163   -2.9840    0.9171 C.1     1  LIG1       -0.0491
     57 C         -12.4650   -3.4004    1.3187 C.1     1  LIG1       -0.1124
     58 H         -11.5325   -3.7784    1.6691 H       1  LIG1        0.1232
     59 H         -18.2996   -1.3409   -0.5034 H       1  LIG1        0.0639
     60 C         -19.2518   -3.9176   -0.6599 C.ar    1  LIG1       -0.0519
     61 C         -20.2093   -4.9249   -0.6383 C.ar    1  LIG1       -0.0521
     62 C         -18.0656   -4.0442    0.0663 C.ar    1  LIG1        0.0016
     63 C         -20.0136   -6.0941    0.1022 C.ar    1  LIG1        0.0013
     64 H         -21.1229   -4.8228   -1.2099 H       1  LIG1        0.0624
     65 C         -17.8436   -5.2098    0.7956 C.ar    1  LIG1       -0.0346
     66 C         -18.8071   -6.2165    0.8114 C.ar    1  LIG1        0.0601
     67 H         -16.9141   -5.3270    1.3363 H       1  LIG1        0.0637
     68 H         -19.4314   -3.0395   -1.2666 H       1  LIG1        0.0624
     69 N         -18.2586   -8.3433    2.2023 N.1     1  LIG1       -0.1908
     70 C         -18.5168   -7.4152    1.5782 C.1     1  LIG1        0.0998
     71 C         -21.6003   -7.6589   -1.0618 C.ar    1  LIG1        0.0331
     72 C         -22.6130   -8.6166   -0.9771 C.ar    1  LIG1       -0.0296
     73 C         -21.0647   -7.1521    0.1311 C.ar    1  LIG1        0.0058
     74 C         -23.0776   -9.0976    0.2441 C.ar    1  LIG1        0.0210
     75 H         -23.0752   -8.9818   -1.8868 H       1  LIG1        0.0643
     76 C         -21.5298   -7.6327    1.3571 C.ar    1  LIG1       -0.0309
     77 C         -22.5197   -8.6036    1.4373 C.ar    1  LIG1        0.0345
     78 H         -21.1034   -7.2356    2.2715 H       1  LIG1        0.0643
     79 N         -21.1791   -7.1829   -2.3163 N.pl3   1  LIG1       -0.3575
     80 H         -20.1994   -6.9267   -2.3462 H       1  LIG1        0.1423
     81 H         -21.4108   -7.8116   -3.0743 H       1  LIG1        0.1423
     82 N         -23.0023   -9.0561    2.6888 N.pl3   1  LIG1       -0.3574
     83 H         -23.1415  -10.0629    2.6939 H       1  LIG1        0.1423
     84 H         -22.3927   -8.7880    3.4524 H       1  LIG1        0.1423
     85 C         -24.1589  -10.1045    0.2717 C.ar    1  LIG1        0.0530
     86 C         -24.4009  -11.1960   -0.5430 C.ar    1  LIG1       -0.0045
     87 C         -25.6299  -11.7688   -0.1011 C.ar    1  LIG1        0.0456
     88 C         -26.0843  -11.0193    0.9597 C.ar    1  LIG1        0.0233
     89 N         -25.1855  -10.0135    1.1714 N.ar    1  LIG1       -0.3588
     90 H         -25.2267   -9.3039    1.8884 H       1  LIG1        0.1654
     91 H         -26.9675  -11.1280    1.5652 H       1  LIG1        0.0826
     92 C         -23.5565  -11.7332   -1.6708 C.3     1  LIG1       -0.0360
     93 H         -24.0140  -11.5121   -2.6378 H       1  LIG1        0.0279
     94 H         -23.4609  -12.8176   -1.5903 H       1  LIG1        0.0279
     95 H         -22.5555  -11.3034   -1.6385 H       1  LIG1        0.0279
     96 N         -26.2492  -12.8857   -0.7187 N.pl3   1  LIG1       -0.3566
     97 H         -25.6646  -13.7138   -0.6602 H       1  LIG1        0.1424
     98 H         -27.1465  -13.0953   -0.2970 H       1  LIG1        0.1424
@<TRIPOS>BOND
     1     9     1    1
     2     8     2    1
     3     1     2   ar
     4     1     6   ar
     5     2     3   ar
     6    81    79    1
     7     6     5   ar
     8    93    92    1
     9     3     7    1
    10     3     4   ar
    11    80    79    1
    12    79    71    1
    13    45    44    1
    14    75    72    1
    15    16    15    1
    16     5     4   ar
    17     5    11    1
    18    92    95    1
    19    92    94    1
    20    92    86    1
    21     4    10    1
    22    44    37    1
    23    68    60    1
    24    64    61    1
    25    71    72   ar
    26    71    73   ar
    27    72    74   ar
    28    15    11   ar
    29    15    14   ar
    30    11    12   ar
    31    96    97    1
    32    96    98    1
    33    96    87    1
    34    60    61   ar
    35    60    62   ar
    36    37    42   ar
    37    37    38   ar
    38    61    63   ar
    39    42    41   ar
    40    86    87   ar
    41    86    85   ar
    42    59    52    1
    43    55    51    1
    44    52    51   ar
    45    52    53   ar
    46    51    50   ar
    47    29    28    1
    48    87    88   ar
    49    28    24   ar
    50    28    27   ar
    51    14    24    1
    52    14    13   ar
    53    36    33    1
    54    62    53    1
    55    62    65   ar
    56    53    54   ar
    57    38    27    1
    58    38    39   ar
    59    24    25   ar
    60    27    26   ar
    61    63    73    1
    62    63    66   ar
    63    50    41    1
    64    50    49   ar
    65    41    40   ar
    66    73    76   ar
    67    74    85    1
    68    74    77   ar
    69    85    89   ar
    70    25    26   ar
    71    25    31    1
    72    12    17    1
    73    12    13   ar
    74    26    32    1
    75    31    30    3
    76    54    49   ar
    77    49    56    1
    78    32    33    1
    79    17    18    1
    80    65    66   ar
    81    65    67    1
    82    66    70    1
    83    39    40   ar
    84    39    43    1
    85    13    23    1
    86    40    46    1
    87    33    34    1
    88    33    35    1
    89    56    57    3
    90    20    18    1
    91    88    89   ar
    92    88    91    1
    93    89    90    1
    94    57    58    1
    95    76    77   ar
    96    76    78    1
    97    77    82    1
    98    18    19    1
    99    18    21    1
   100    70    69    3
   101    46    47    3
   102    23    22    3
   103    47    48    1
   104    82    83    1
   105    82    84    1
