@<TRIPOS>MOLECULE
mol_data/opt/m06hf/geoms/mol2/6aa12le-4ef12af-.out
 45 48 0 0 0
SMALL
GASTEIGER

@<TRIPOS>ATOM
      1 C          -4.3032   -2.3173   -0.6820 C.ar    1  LIG1        0.0284
      2 C          -2.9228   -2.2721   -0.8574 C.ar    1  LIG1       -0.0436
      3 C          -2.3022   -1.0263   -0.8682 C.ar    1  LIG1       -0.0582
      4 C          -3.0755    0.1147   -0.7058 C.ar    1  LIG1       -0.0325
      5 C          -4.4540   -0.0475   -0.5295 C.ar    1  LIG1        0.1097
      6 N          -5.0585   -1.2351   -0.5174 N.ar    1  LIG1       -0.2518
      7 H          -1.2326   -0.9440   -1.0101 H       1  LIG1        0.0619
      8 H          -2.3590   -3.1855   -0.9843 H       1  LIG1        0.0633
      9 H          -4.8263   -3.2659   -0.6718 H       1  LIG1        0.0830
     10 H          -2.6514    1.1097   -0.7186 H       1  LIG1        0.0640
     11 C          -5.3127    1.1310   -0.3348 C.ar    1  LIG1        0.1964
     12 C          -5.0316    2.4387   -0.0772 C.ar    1  LIG1        0.1832
     13 C          -6.2944    3.1244    0.0421 C.ar    1  LIG1        0.1127
     14 C          -7.2454    2.1633   -0.1783 C.ar    1  LIG1        0.1561
     15 O          -6.6533    0.9752   -0.3952 O.2     1  LIG1       -0.4482
     16 O          -3.8011    2.9948    0.0575 O.3     1  LIG1       -0.4901
     17 C          -3.4611    3.2836    1.4187 C.3     1  LIG1        0.0790
     18 H          -2.4788    3.7479    1.3929 H       1  LIG1        0.0660
     19 H          -4.1928    3.9685    1.8479 H       1  LIG1        0.0660
     20 H          -3.4290    2.3543    1.9914 H       1  LIG1        0.0660
     21 C          -6.4608    4.4916    0.4248 C.1     1  LIG1       -0.0622
     22 C          -6.5660    5.6340    0.7828 C.1     1  LIG1       -0.1137
     23 H          -6.6813    6.6473    1.0902 H       1  LIG1        0.1232
     24 C          -9.5022    3.1627   -0.7081 C.ar    1  LIG1        0.0363
     25 C         -10.8939    3.0678   -0.6062 C.ar    1  LIG1       -0.0315
     26 C          -8.7166    2.1502   -0.1397 C.ar    1  LIG1        0.0375
     27 C         -11.5142    2.0002    0.0308 C.ar    1  LIG1        0.0599
     28 H         -11.5044    3.8324   -1.0674 H       1  LIG1        0.0638
     29 C          -9.3309    1.0597    0.4769 C.ar    1  LIG1       -0.0076
     30 C         -10.7146    0.9794    0.5717 C.ar    1  LIG1        0.1282
     31 H          -8.7094    0.2756    0.8943 H       1  LIG1        0.0662
     32 C          -8.9335    4.2466   -1.4689 C.1     1  LIG1       -0.0689
     33 C          -8.4924    5.1478   -2.1306 C.1     1  LIG1       -0.1139
     34 H          -8.0775    5.9425   -2.7062 H       1  LIG1        0.1232
     35 O         -11.3309   -0.0480    1.1991 O.3     1  LIG1       -0.5060
     36 H         -10.6834   -0.6846    1.5198 H       1  LIG1        0.2922
     37 C         -12.9840    1.9751    0.1342 C.ar    1  LIG1        0.1420
     38 C         -13.8719    2.9785    0.3737 C.ar    1  LIG1        0.0259
     39 C         -15.1657    2.3646    0.3098 C.ar    1  LIG1        0.1550
     40 C         -14.9598    1.0502    0.0398 C.ar    1  LIG1        0.1338
     41 O         -13.6314    0.8136   -0.0678 O.2     1  LIG1       -0.4591
     42 H         -15.6189    0.2115   -0.0947 H       1  LIG1        0.1068
     43 H         -13.6552    4.0094    0.5947 H       1  LIG1        0.0692
     44 O         -16.3249    3.0488    0.5021 O.3     1  LIG1       -0.5036
     45 H         -17.0757    2.4463    0.4916 H       1  LIG1        0.2923
@<TRIPOS>BOND
     1    34    33    1
     2    33    32    3
     3    32    24    1
     4    28    25    1
     5     7     3    1
     6     8     2    1
     7     3     2   ar
     8     3     4   ar
     9     2     1   ar
    10    10     4    1
    11    24    25   ar
    12    24    26   ar
    13     4     5   ar
    14     1     9    1
    15     1     6   ar
    16    25    27   ar
    17     5     6   ar
    18     5    11    1
    19    15    11   ar
    20    15    14   ar
    21    11    12   ar
    22    14    26    1
    23    14    13   ar
    24    26    29   ar
    25    42    40    1
    26    12    13   ar
    27    12    16    1
    28    41    40   ar
    29    41    37   ar
    30    27    37    1
    31    27    30   ar
    32    40    39   ar
    33    13    21    1
    34    16    17    1
    35    37    38   ar
    36    39    38   ar
    37    39    44    1
    38    38    43    1
    39    21    22    3
    40    29    30   ar
    41    29    31    1
    42    45    44    1
    43    30    35    1
    44    22    23    1
    45    35    36    1
    46    18    17    1
    47    17    19    1
    48    17    20    1
