@<TRIPOS>MOLECULE
mol_data/opt/m06hf/geoms/mol2/6aa4dd13aa12hf.out
 41 44 0 0 0
SMALL
GASTEIGER

@<TRIPOS>ATOM
      1 C          -4.2308   -2.1621   -0.4649 C.ar    1  LIG1        0.0283
      2 C          -2.8668   -2.1971   -0.1803 C.ar    1  LIG1       -0.0436
      3 C          -2.2486   -1.0149    0.2044 C.ar    1  LIG1       -0.0583
      4 C          -3.0020    0.1522    0.2773 C.ar    1  LIG1       -0.0357
      5 C          -4.3559    0.0885   -0.0566 C.ar    1  LIG1        0.0722
      6 N          -4.9563   -1.0521   -0.4038 N.ar    1  LIG1       -0.2549
      7 H          -1.1959   -0.9958    0.4533 H       1  LIG1        0.0619
      8 H          -2.3186   -3.1257   -0.2520 H       1  LIG1        0.0633
      9 H          -4.7589   -3.0621   -0.7542 H       1  LIG1        0.0830
     10 H          -2.5481    1.0795    0.5942 H       1  LIG1        0.0639
     11 C          -4.8618    2.6016   -0.2603 C.ar    1  LIG1        0.0616
     12 C          -5.7597    3.6627   -0.1984 C.ar    1  LIG1       -0.0334
     13 C          -5.2597    1.2795   -0.0033 C.ar    1  LIG1        0.0189
     14 C          -7.1020    3.4641    0.1385 C.ar    1  LIG1        0.0169
     15 H          -5.4155    4.6556   -0.4503 H       1  LIG1        0.0637
     16 C          -6.6033    1.0699    0.2895 C.ar    1  LIG1       -0.0333
     17 C          -7.4998    2.1339    0.3680 C.ar    1  LIG1        0.0615
     18 H          -6.9446    0.0573    0.4561 H       1  LIG1        0.0637
     19 N          -2.4518    3.2326   -1.0016 N.1     1  LIG1       -0.1908
     20 C          -3.5086    2.9291   -0.6725 C.1     1  LIG1        0.0998
     21 N          -9.9683    1.5612    0.9386 N.1     1  LIG1       -0.1908
     22 C          -8.8747    1.8167    0.6996 C.1     1  LIG1        0.0998
     23 C          -7.9832    4.6335    0.2243 C.ar    1  LIG1        0.0483
     24 C          -7.6309    5.9535    0.4620 C.ar    1  LIG1       -0.0357
     25 C          -8.8121    6.7260    0.4388 C.ar    1  LIG1       -0.0327
     26 C          -9.8547    5.8503    0.1827 C.ar    1  LIG1        0.0845
     27 N          -9.3426    4.5993    0.0600 N.ar    1  LIG1       -0.3517
     28 H          -9.9096    3.7803   -0.1138 H       1  LIG1        0.1660
     29 H          -6.6362    6.3113    0.6713 H       1  LIG1        0.0639
     30 H          -8.9176    7.7809    0.6277 H       1  LIG1        0.0640
     31 C         -11.2750    6.1002    0.0338 C.ar    1  LIG1        0.1751
     32 C         -11.9674    7.2534   -0.1652 C.ar    1  LIG1        0.1145
     33 C         -13.3480    6.8530   -0.2410 C.ar    1  LIG1        0.1763
     34 C         -13.3820    5.5072   -0.0947 C.ar    1  LIG1        0.1359
     35 O         -12.1200    5.0384    0.0674 O.2     1  LIG1       -0.4558
     36 H         -14.1800    4.7868   -0.0859 H       1  LIG1        0.1068
     37 N         -11.4855    8.5635   -0.2659 N.pl3   1  LIG1       -0.3522
     38 H         -10.7146    8.6425   -0.9211 H       1  LIG1        0.1425
     39 H         -12.2280    9.2091   -0.5091 H       1  LIG1        0.1425
     40 O         -14.3321    7.7708   -0.4414 O.3     1  LIG1       -0.5024
     41 H         -15.2013    7.3636   -0.3700 H       1  LIG1        0.2923
@<TRIPOS>BOND
     1    19    20    3
     2    38    37    1
     3     9     1    1
     4    20    11    1
     5    39    37    1
     6     1     6   ar
     7     1     2   ar
     8    15    12    1
     9    40    41    1
    10    40    33    1
    11     6     5   ar
    12    37    32    1
    13    11    12   ar
    14    11    13   ar
    15     8     2    1
    16    33    32   ar
    17    33    34   ar
    18    12    14   ar
    19     2     3   ar
    20    32    31   ar
    21    28    27    1
    22    34    36    1
    23    34    35   ar
    24     5    13    1
    25     5     4   ar
    26    13    16   ar
    27    31    35   ar
    28    31    26    1
    29    27    26   ar
    30    27    23   ar
    31    14    23    1
    32    14    17   ar
    33    26    25   ar
    34     3     4   ar
    35     3     7    1
    36    23    24   ar
    37     4    10    1
    38    16    17   ar
    39    16    18    1
    40    17    22    1
    41    25    24   ar
    42    25    30    1
    43    24    29    1
    44    22    21    3
