@<TRIPOS>MOLECULE
mol_data/opt/m06hf/geoms/mol2/6aa6fh-13ah12fe-.out
 43 46 0 0 0
SMALL
GASTEIGER

@<TRIPOS>ATOM
      1 C          -4.5327   -2.2200   -0.0969 C.ar    1  LIG1        0.0283
      2 C          -3.1525   -2.2872    0.0196 C.ar    1  LIG1       -0.0436
      3 C          -2.4524   -1.0874    0.1304 C.ar    1  LIG1       -0.0583
      4 C          -3.1426    0.1137    0.1070 C.ar    1  LIG1       -0.0355
      5 C          -4.5372    0.0973   -0.0413 C.ar    1  LIG1        0.0761
      6 N          -5.1957   -1.0661   -0.1262 N.ar    1  LIG1       -0.2548
      7 H          -1.3762   -1.0903    0.2455 H       1  LIG1        0.0619
      8 H          -2.6492   -3.2427    0.0366 H       1  LIG1        0.0633
      9 H          -5.1350   -3.1170   -0.1686 H       1  LIG1        0.0830
     10 H          -2.6138    1.0471    0.2279 H       1  LIG1        0.0639
     11 C          -6.7655    1.2902    0.0363 C.ar    1  LIG1        0.2224
     12 C          -5.3539    1.3350   -0.0920 C.ar    1  LIG1        0.0634
     13 C          -4.7761    2.5906   -0.2783 C.ar    1  LIG1       -0.0246
     14 C          -5.5382    3.7500   -0.2690 C.ar    1  LIG1        0.0532
     15 C          -6.9156    3.5923   -0.0322 C.ar    1  LIG1        0.1115
     16 N          -7.4888    2.3949    0.0783 N.ar    1  LIG1       -0.2091
     17 H          -3.7115    2.6756   -0.4624 H       1  LIG1        0.0645
     18 O          -7.4350    0.1432    0.1257 O.3     1  LIG1       -0.4919
     19 H          -6.7737   -0.5920    0.0073 H       1  LIG1        0.2937
     20 N          -4.9776    5.0248   -0.4645 N.pl3   1  LIG1       -0.3563
     21 H          -4.0412    4.9860   -0.8466 H       1  LIG1        0.1424
     22 H          -5.5720    5.6175   -1.0356 H       1  LIG1        0.1424
     23 C          -7.8401    4.7307    0.0591 C.ar    1  LIG1        0.0692
     24 C          -7.6775    6.1009    0.2367 C.ar    1  LIG1       -0.0134
     25 C          -8.9738    6.6739    0.2923 C.ar    1  LIG1        0.0540
     26 C          -9.8787    5.6312    0.1378 C.ar    1  LIG1        0.1072
     27 N          -9.1674    4.4729    0.0026 N.ar    1  LIG1       -0.3489
     28 H          -9.5298    3.5315   -0.0740 H       1  LIG1        0.1661
     29 H          -6.7469    6.6174    0.4021 H       1  LIG1        0.0658
     30 N          -9.2803    8.0169    0.5508 N.pl3   1  LIG1       -0.3562
     31 H          -8.5387    8.6399    0.2597 H       1  LIG1        0.1424
     32 H         -10.1702    8.3060    0.1590 H       1  LIG1        0.1424
     33 C         -11.3278    5.6369    0.1209 C.ar    1  LIG1        0.1951
     34 C         -12.2600    6.5741   -0.1914 C.ar    1  LIG1        0.1799
     35 C         -13.5515    5.9661    0.0095 C.ar    1  LIG1        0.1045
     36 C         -13.2941    4.6924    0.4114 C.ar    1  LIG1        0.1117
     37 O         -11.9732    4.4906    0.4852 O.2     1  LIG1       -0.4563
     38 H         -13.9372    3.8697    0.6681 H       1  LIG1        0.1043
     39 O         -12.0313    7.8381   -0.6350 O.3     1  LIG1       -0.5024
     40 H         -12.8769    8.2948   -0.7302 H       1  LIG1        0.2923
     41 C         -14.7996    6.6282   -0.2139 C.1     1  LIG1       -0.0628
     42 C         -15.8125    7.2419   -0.4213 C.1     1  LIG1       -0.1137
     43 H         -16.7222    7.7670   -0.6016 H       1  LIG1        0.1232
@<TRIPOS>BOND
     1    22    20    1
     2    21    20    1
     3    40    39    1
     4    39    34    1
     5    43    42    1
     6    20    14    1
     7    17    13    1
     8    42    41    3
     9    13    14   ar
    10    13    12   ar
    11    14    15   ar
    12    41    35    1
    13    34    35   ar
    14    34    33   ar
    15     9     1    1
    16     6     1   ar
    17     6     5   ar
    18     1     2   ar
    19    12     5    1
    20    12    11   ar
    21    28    27    1
    22     5     4   ar
    23    15    23    1
    24    15    16   ar
    25    27    23   ar
    26    27    26   ar
    27    19    18    1
    28    35    36   ar
    29     2     8    1
    30     2     3   ar
    31    11    16   ar
    32    11    18    1
    33    23    24   ar
    34     4     3   ar
    35     4    10    1
    36    33    26    1
    37    33    37   ar
    38     3     7    1
    39    26    25   ar
    40    32    30    1
    41    24    25   ar
    42    24    29    1
    43    31    30    1
    44    25    30    1
    45    36    37   ar
    46    36    38    1
