@<TRIPOS>MOLECULE
mol_data/opt/m06hf/geoms/mol2/6aa6aa-6aa-6aa.out
 38 41 0 0 0
SMALL
GASTEIGER

@<TRIPOS>ATOM
      1 C          -4.3879   -2.2273   -0.0005 C.ar    1  LIG1        0.0283
      2 C          -2.9960   -2.2615   -0.0005 C.ar    1  LIG1       -0.0436
      3 C          -2.3168   -1.0493   -0.0005 C.ar    1  LIG1       -0.0583
      4 C          -3.0438    0.1348   -0.0004 C.ar    1  LIG1       -0.0356
      5 C          -4.4399    0.0680   -0.0003 C.ar    1  LIG1        0.0724
      6 N          -5.0883   -1.0989   -0.0004 N.ar    1  LIG1       -0.2549
      7 H          -1.2351   -1.0217   -0.0005 H       1  LIG1        0.0619
      8 H          -2.4709   -3.2062   -0.0006 H       1  LIG1        0.0633
      9 H          -4.9630   -3.1452   -0.0005 H       1  LIG1        0.0830
     10 H          -2.5279    1.0834   -0.0004 H       1  LIG1        0.0639
     11 C          -4.8044    2.5872   -0.0001 C.ar    1  LIG1        0.0374
     12 C          -5.3080    1.2849   -0.0002 C.ar    1  LIG1        0.0185
     13 C          -6.6961    1.1456   -0.0001 C.ar    1  LIG1       -0.0491
     14 C          -7.4993    2.2744   -0.0000 C.ar    1  LIG1       -0.0350
     15 C          -6.8957    3.5360    0.0000 C.ar    1  LIG1        0.0724
     16 N          -5.5686    3.6716   -0.0000 N.ar    1  LIG1       -0.2543
     17 H          -7.1187    0.1498   -0.0002 H       1  LIG1        0.0625
     18 H          -3.7387    2.7783   -0.0002 H       1  LIG1        0.0836
     19 H          -8.5738    2.1674    0.0000 H       1  LIG1        0.0639
     20 C          -7.0109    6.0323    0.0004 C.ar    1  LIG1        0.0374
     21 C          -7.6829    4.8044    0.0001 C.ar    1  LIG1        0.0185
     22 C          -9.0754    4.8489   -0.0000 C.ar    1  LIG1       -0.0491
     23 C          -9.7255    6.0751    0.0001 C.ar    1  LIG1       -0.0350
     24 C          -8.9636    7.2453    0.0004 C.ar    1  LIG1        0.0724
     25 N          -7.6281    7.2052    0.0005 N.ar    1  LIG1       -0.2543
     26 H          -9.6663    3.9427   -0.0003 H       1  LIG1        0.0625
     27 H          -5.9292    6.0407    0.0005 H       1  LIG1        0.0836
     28 H         -10.8047    6.1066   -0.0000 H       1  LIG1        0.0639
     29 C         -10.9502    8.8314    0.0004 C.ar    1  LIG1        0.0367
     30 C          -9.5707    8.6114    0.0005 C.ar    1  LIG1        0.0184
     31 C          -8.7402    9.7335    0.0008 C.ar    1  LIG1       -0.0497
     32 C          -9.3122   10.9972    0.0009 C.ar    1  LIG1       -0.0430
     33 C         -10.7016   11.0985    0.0008 C.ar    1  LIG1        0.0276
     34 N         -11.5072   10.0394    0.0005 N.ar    1  LIG1       -0.2626
     35 H          -7.6685    9.5876    0.0009 H       1  LIG1        0.0625
     36 H         -11.1852   12.0682    0.0009 H       1  LIG1        0.0829
     37 H         -11.6488    8.0039    0.0002 H       1  LIG1        0.0836
     38 H          -8.7004   11.8884    0.0011 H       1  LIG1        0.0633
@<TRIPOS>BOND
     1     8     2    1
     2     7     3    1
     3     2     3   ar
     4     2     1   ar
     5     9     1    1
     6     3     4   ar
     7     1     6   ar
     8     4    10    1
     9     4     5   ar
    10     6     5   ar
    11     5    12    1
    12    26    22    1
    13    12    13   ar
    14    12    11   ar
    15    17    13    1
    16    18    11    1
    17    13    14   ar
    18    11    16   ar
    19    16    15   ar
    20    28    23    1
    21    14    15   ar
    22    14    19    1
    23    22    23   ar
    24    22    21   ar
    25    15    21    1
    26    23    24   ar
    27    21    20   ar
    28    37    29    1
    29    24    25   ar
    30    24    30    1
    31    20    25   ar
    32    20    27    1
    33    29    30   ar
    34    29    34   ar
    35    30    31   ar
    36    34    33   ar
    37    31    35    1
    38    31    32   ar
    39    33    36    1
    40    33    32   ar
    41    32    38    1
