@<TRIPOS>MOLECULE
mol_data/opt/m06hf/geoms/mol2/6aa6aa6aa.out
 29 31 0 0 0
SMALL
GASTEIGER

@<TRIPOS>ATOM
      1 C          -4.5326   -2.1574   -0.0004 C.ar    1  LIG1        0.0283
      2 C          -3.1427   -2.2405   -0.0003 C.ar    1  LIG1       -0.0436
      3 C          -2.4223   -1.0520   -0.0002 C.ar    1  LIG1       -0.0583
      4 C          -3.1084    0.1561   -0.0001 C.ar    1  LIG1       -0.0356
      5 C          -4.5064    0.1381   -0.0002 C.ar    1  LIG1        0.0724
      6 N          -5.1938   -1.0060   -0.0003 N.ar    1  LIG1       -0.2549
      7 H          -1.3401   -1.0619   -0.0001 H       1  LIG1        0.0619
      8 H          -2.6510   -3.2028   -0.0004 H       1  LIG1        0.0633
      9 H          -5.1391   -3.0551   -0.0005 H       1  LIG1        0.0830
     10 H          -2.5617    1.0873   -0.0000 H       1  LIG1        0.0639
     11 C          -6.7233    1.2905   -0.0000 C.ar    1  LIG1        0.0374
     12 C          -5.3262    1.3877   -0.0002 C.ar    1  LIG1        0.0185
     13 C          -4.7857    2.6712   -0.0003 C.ar    1  LIG1       -0.0491
     14 C          -5.6297    3.7735   -0.0002 C.ar    1  LIG1       -0.0350
     15 C          -7.0111    3.5703   -0.0001 C.ar    1  LIG1        0.0724
     16 N          -7.5320    2.3403    0.0000 N.ar    1  LIG1       -0.2543
     17 H          -3.7159    2.8321   -0.0004 H       1  LIG1        0.0625
     18 H          -7.1825    0.3112    0.0001 H       1  LIG1        0.0836
     19 H          -5.2081    4.7676   -0.0003 H       1  LIG1        0.0639
     20 C          -9.3626    4.4068    0.0004 C.ar    1  LIG1        0.0367
     21 C          -7.9927    4.6973   -0.0001 C.ar    1  LIG1        0.0184
     22 C          -7.6214    6.0411   -0.0006 C.ar    1  LIG1       -0.0497
     23 C          -8.6100    7.0171   -0.0005 C.ar    1  LIG1       -0.0430
     24 C          -9.9416    6.6138   -0.0000 C.ar    1  LIG1        0.0276
     25 N         -10.3143    5.3349    0.0005 N.ar    1  LIG1       -0.2626
     26 H          -6.5810    6.3374   -0.0010 H       1  LIG1        0.0625
     27 H         -10.7401    7.3461    0.0000 H       1  LIG1        0.0829
     28 H          -9.6780    3.3720    0.0008 H       1  LIG1        0.0836
     29 H          -8.3570    8.0681   -0.0009 H       1  LIG1        0.0633
@<TRIPOS>BOND
     1    26    22    1
     2    29    23    1
     3    22    23   ar
     4    22    21   ar
     5    23    24   ar
     6     9     1    1
     7    17    13    1
     8     1     6   ar
     9     1     2   ar
    10     8     2    1
    11     6     5   ar
    12     2     3   ar
    13    19    14    1
    14    13    14   ar
    15    13    12   ar
    16    14    15   ar
    17     5    12    1
    18     5     4   ar
    19     3     7    1
    20     3     4   ar
    21    12    11   ar
    22     4    10    1
    23    15    21    1
    24    15    16   ar
    25    21    20   ar
    26    11    16   ar
    27    11    18    1
    28    24    27    1
    29    24    25   ar
    30    20    25   ar
    31    20    28    1
