@<TRIPOS>MOLECULE
mol_data/opt/m06hf/geoms/mol2/6aa6aa6aa6aa-.out
 38 41 0 0 0
SMALL
GASTEIGER

@<TRIPOS>ATOM
      1 C          -4.5609   -2.2384   -0.0006 C.ar    1  LIG1        0.0283
      2 C          -3.1737   -2.3566   -0.0006 C.ar    1  LIG1       -0.0436
      3 C          -2.4229   -1.1874   -0.0004 C.ar    1  LIG1       -0.0583
      4 C          -3.0784    0.0375   -0.0003 C.ar    1  LIG1       -0.0356
      5 C          -4.4759    0.0552   -0.0003 C.ar    1  LIG1        0.0724
      6 N          -5.1931   -1.0708   -0.0004 N.ar    1  LIG1       -0.2549
      7 H          -1.3414   -1.2255   -0.0004 H       1  LIG1        0.0619
      8 H          -2.7066   -3.3315   -0.0007 H       1  LIG1        0.0633
      9 H          -5.1901   -3.1206   -0.0007 H       1  LIG1        0.0830
     10 H          -2.5086    0.9552   -0.0001 H       1  LIG1        0.0639
     11 C          -6.6615    1.2654    0.0001 C.ar    1  LIG1        0.0374
     12 C          -5.2621    1.3261   -0.0002 C.ar    1  LIG1        0.0185
     13 C          -4.6873    2.5943   -0.0003 C.ar    1  LIG1       -0.0491
     14 C          -5.5013    3.7187   -0.0002 C.ar    1  LIG1       -0.0350
     15 C          -6.8877    3.5509    0.0000 C.ar    1  LIG1        0.0724
     16 N          -7.4424    2.3359    0.0002 N.ar    1  LIG1       -0.2543
     17 H          -3.6136    2.7267   -0.0005 H       1  LIG1        0.0625
     18 H          -7.1440    0.2970    0.0002 H       1  LIG1        0.0836
     19 H          -5.0551    4.7019   -0.0002 H       1  LIG1        0.0639
     20 C          -9.2144    4.4587    0.0005 C.ar    1  LIG1        0.0374
     21 C          -7.8361    4.7035    0.0001 C.ar    1  LIG1        0.0185
     22 C          -7.4333    6.0374   -0.0001 C.ar    1  LIG1       -0.0491
     23 C          -8.3873    7.0454   -0.0000 C.ar    1  LIG1       -0.0350
     24 C          -9.7394    6.6971    0.0004 C.ar    1  LIG1        0.0724
     25 N         -10.1282    5.4188    0.0006 N.ar    1  LIG1       -0.2543
     26 H          -6.3859    6.3084   -0.0005 H       1  LIG1        0.0625
     27 H          -9.5673    3.4361    0.0008 H       1  LIG1        0.0836
     28 H          -8.0727    8.0784   -0.0003 H       1  LIG1        0.0639
     29 C         -10.6081    9.0862    0.0002 C.ar    1  LIG1        0.0367
     30 C         -10.8400    7.7088    0.0005 C.ar    1  LIG1        0.0184
     31 C         -12.1684    7.2796    0.0009 C.ar    1  LIG1       -0.0497
     32 C         -13.1834    8.2250    0.0010 C.ar    1  LIG1       -0.0430
     33 C         -12.8360    9.5742    0.0008 C.ar    1  LIG1        0.0276
     34 N         -11.5751    9.9996    0.0004 N.ar    1  LIG1       -0.2626
     35 H         -12.3711    6.2171    0.0011 H       1  LIG1        0.0625
     36 H         -13.6008   10.3419    0.0008 H       1  LIG1        0.0829
     37 H          -9.6005    9.4838   -0.0001 H       1  LIG1        0.0836
     38 H         -14.2232    7.9295    0.0014 H       1  LIG1        0.0633
@<TRIPOS>BOND
     1     9     1    1
     2     8     2    1
     3     1     2   ar
     4     1     6   ar
     5     2     3   ar
     6    17    13    1
     7    26    22    1
     8     6     5   ar
     9     3     7    1
    10     3     4   ar
    11     5     4   ar
    12     5    12    1
    13    13    12   ar
    14    13    14   ar
    15    28    23    1
    16     4    10    1
    17    19    14    1
    18    12    11   ar
    19    14    15   ar
    20    22    23   ar
    21    22    21   ar
    22    37    29    1
    23    23    24   ar
    24    15    21    1
    25    15    16   ar
    26    11    18    1
    27    11    16   ar
    28    21    20   ar
    29    29    34   ar
    30    29    30   ar
    31    24    30    1
    32    24    25   ar
    33    34    33   ar
    34    30    31   ar
    35    20    25   ar
    36    20    27    1
    37    33    36    1
    38    33    32   ar
    39    31    32   ar
    40    31    35    1
    41    32    38    1
