@<TRIPOS>MOLECULE
mol_data/opt/m06hf/geoms/mol2/6aa6aa-4aa6aa.out
 39 42 0 0 0
SMALL
GASTEIGER

@<TRIPOS>ATOM
      1 C          -4.3564   -2.2151    0.3966 C.ar    1  LIG1        0.0283
      2 C          -3.0049   -2.2697    0.0655 C.ar    1  LIG1       -0.0436
      3 C          -2.3807   -1.0901   -0.3236 C.ar    1  LIG1       -0.0583
      4 C          -3.1201    0.0857   -0.3546 C.ar    1  LIG1       -0.0356
      5 C          -4.4661    0.0431    0.0211 C.ar    1  LIG1        0.0724
      6 N          -5.0685   -1.0934    0.3776 N.ar    1  LIG1       -0.2549
      7 H          -1.3366   -1.0844   -0.6079 H       1  LIG1        0.0619
      8 H          -2.4698   -3.2082    0.1043 H       1  LIG1        0.0633
      9 H          -4.8881   -3.1112    0.6926 H       1  LIG1        0.0830
     10 H          -2.6690    1.0105   -0.6850 H       1  LIG1        0.0639
     11 C          -4.7940    2.5518    0.1202 C.ar    1  LIG1        0.0374
     12 C          -5.3227    1.2639    0.0284 C.ar    1  LIG1        0.0185
     13 C          -6.7119    1.1467   -0.0207 C.ar    1  LIG1       -0.0491
     14 C          -7.4909    2.2924   -0.0196 C.ar    1  LIG1       -0.0351
     15 C          -6.8613    3.5416    0.0268 C.ar    1  LIG1        0.0710
     16 N          -5.5344    3.6536    0.1143 N.ar    1  LIG1       -0.2543
     17 H          -7.1527    0.1587   -0.0469 H       1  LIG1        0.0625
     18 H          -3.7263    2.7064    0.2238 H       1  LIG1        0.0836
     19 H          -8.5688    2.2192   -0.0299 H       1  LIG1        0.0639
     20 C          -7.0341    5.9836    0.4981 C.ar    1  LIG1       -0.0520
     21 C          -7.7320    7.1834    0.5092 C.ar    1  LIG1       -0.0534
     22 C          -7.6352    4.8198    0.0122 C.ar    1  LIG1        0.0004
     23 C          -9.0421    7.2507    0.0254 C.ar    1  LIG1       -0.0164
     24 H          -7.2680    8.0724    0.9183 H       1  LIG1        0.0624
     25 C          -8.9390    4.8868   -0.4821 C.ar    1  LIG1       -0.0520
     26 C          -9.6357    6.0897   -0.4750 C.ar    1  LIG1       -0.0534
     27 H          -9.4097    4.0106   -0.9083 H       1  LIG1        0.0624
     28 H          -6.0198    5.9235    0.8687 H       1  LIG1        0.0624
     29 H         -10.6351    6.1360   -0.8896 H       1  LIG1        0.0624
     30 C         -11.1260    8.5876    0.4473 C.ar    1  LIG1        0.0352
     31 C          -9.7900    8.5385    0.0343 C.ar    1  LIG1        0.0002
     32 C          -9.1957    9.7369   -0.3623 C.ar    1  LIG1       -0.0512
     33 C          -9.9463   10.9057   -0.3345 C.ar    1  LIG1       -0.0430
     34 C         -11.2715   10.8338    0.0865 C.ar    1  LIG1        0.0276
     35 N         -11.8536    9.6998    0.4719 N.ar    1  LIG1       -0.2627
     36 H          -8.1689    9.7434   -0.7070 H       1  LIG1        0.0625
     37 H         -11.8898   11.7231    0.1159 H       1  LIG1        0.0829
     38 H         -11.6166    7.6830    0.7890 H       1  LIG1        0.0836
     39 H          -9.5217   11.8516   -0.6411 H       1  LIG1        0.0633
@<TRIPOS>BOND
     1    27    25    1
     2    29    26    1
     3    36    32    1
     4    10     4    1
     5    39    33    1
     6     7     3    1
     7    25    26   ar
     8    25    22   ar
     9    26    23   ar
    10    32    33   ar
    11    32    31   ar
    12     4     3   ar
    13     4     5   ar
    14    33    34   ar
    15     3     2   ar
    16    17    13    1
    17    19    14    1
    18    13    14   ar
    19    13    12   ar
    20    14    15   ar
    21    22    15    1
    22    22    20   ar
    23     5    12    1
    24     5     6   ar
    25    23    31    1
    26    23    21   ar
    27    15    16   ar
    28    12    11   ar
    29    31    30   ar
    30     2     8    1
    31     2     1   ar
    32    34    37    1
    33    34    35   ar
    34    16    11   ar
    35    11    18    1
    36     6     1   ar
    37     1     9    1
    38    30    35   ar
    39    30    38    1
    40    20    21   ar
    41    20    28    1
    42    21    24    1
