@<TRIPOS>MOLECULE
mol_data/opt/m06hf/geoms/mol2/6aa6aa6aa6aa.out
 38 41 0 0 0
SMALL
GASTEIGER

@<TRIPOS>ATOM
      1 C          -4.5488   -2.2457   -0.0006 C.ar    1  LIG1        0.0283
      2 C          -3.1614   -2.3602   -0.0006 C.ar    1  LIG1       -0.0436
      3 C          -2.4137   -1.1889   -0.0004 C.ar    1  LIG1       -0.0583
      4 C          -3.0726    0.0342   -0.0002 C.ar    1  LIG1       -0.0356
      5 C          -4.4701    0.0481   -0.0003 C.ar    1  LIG1        0.0724
      6 N          -5.1842   -1.0798   -0.0005 N.ar    1  LIG1       -0.2549
      7 H          -1.3321   -1.2240   -0.0004 H       1  LIG1        0.0619
      8 H          -2.6916   -3.3337   -0.0008 H       1  LIG1        0.0633
      9 H          -5.1757   -3.1296   -0.0008 H       1  LIG1        0.0830
     10 H          -2.5053    0.9534   -0.0000 H       1  LIG1        0.0639
     11 C          -6.6590    1.2530   -0.0000 C.ar    1  LIG1        0.0374
     12 C          -5.2598    1.3168   -0.0002 C.ar    1  LIG1        0.0185
     13 C          -4.6878    2.5863   -0.0002 C.ar    1  LIG1       -0.0491
     14 C          -5.5043    3.7087   -0.0001 C.ar    1  LIG1       -0.0350
     15 C          -6.8903    3.5379    0.0000 C.ar    1  LIG1        0.0724
     16 N          -7.4424    2.3218    0.0001 N.ar    1  LIG1       -0.2543
     17 H          -3.6143    2.7211   -0.0003 H       1  LIG1        0.0625
     18 H          -7.1395    0.2835    0.0000 H       1  LIG1        0.0836
     19 H          -5.0601    4.6929   -0.0001 H       1  LIG1        0.0639
     20 C          -9.2191    4.4436    0.0005 C.ar    1  LIG1        0.0374
     21 C          -7.8406    4.6889    0.0001 C.ar    1  LIG1        0.0185
     22 C          -7.4382    6.0227   -0.0001 C.ar    1  LIG1       -0.0491
     23 C          -8.3931    7.0296    0.0000 C.ar    1  LIG1       -0.0350
     24 C          -9.7451    6.6814    0.0004 C.ar    1  LIG1        0.0724
     25 N         -10.1335    5.4030    0.0007 N.ar    1  LIG1       -0.2543
     26 H          -6.3909    6.2940   -0.0004 H       1  LIG1        0.0625
     27 H          -9.5720    3.4210    0.0008 H       1  LIG1        0.0836
     28 H          -8.0787    8.0628   -0.0002 H       1  LIG1        0.0639
     29 C         -12.1722    7.2686    0.0013 C.ar    1  LIG1        0.0367
     30 C         -10.8396    7.6994    0.0006 C.ar    1  LIG1        0.0184
     31 C         -10.6097    9.0742   -0.0000 C.ar    1  LIG1       -0.0497
     32 C         -11.6935    9.9430    0.0002 C.ar    1  LIG1       -0.0430
     33 C         -12.9763    9.4039    0.0010 C.ar    1  LIG1        0.0276
     34 N         -13.2145    8.0936    0.0016 N.ar    1  LIG1       -0.2626
     35 H          -9.6050    9.4761   -0.0007 H       1  LIG1        0.0625
     36 H         -13.8463   10.0500    0.0013 H       1  LIG1        0.0829
     37 H         -12.3786    6.2067    0.0018 H       1  LIG1        0.0836
     38 H         -11.5504   11.0146   -0.0002 H       1  LIG1        0.0633
@<TRIPOS>BOND
     1     9     1    1
     2     8     2    1
     3    35    31    1
     4     1     2   ar
     5     1     6   ar
     6     2     3   ar
     7     6     5   ar
     8    26    22    1
     9     3     7    1
    10     3     4   ar
    11    17    13    1
    12     5     4   ar
    13     5    12    1
    14     4    10    1
    15    38    32    1
    16    13    12   ar
    17    13    14   ar
    18    28    23    1
    19    12    11   ar
    20    22    23   ar
    21    22    21   ar
    22    19    14    1
    23    14    15   ar
    24    31    32   ar
    25    31    30   ar
    26    11    18    1
    27    11    16   ar
    28    23    24   ar
    29    15    16   ar
    30    15    21    1
    31    21    20   ar
    32    32    33   ar
    33    24    30    1
    34    24    25   ar
    35    20    25   ar
    36    20    27    1
    37    30    29   ar
    38    33    36    1
    39    33    34   ar
    40    29    34   ar
    41    29    37    1
