@<TRIPOS>MOLECULE
mol_data/opt/m06hf/geoms/mol2/6aa6aa.out
 20 21 0 0 0
SMALL
GASTEIGER

@<TRIPOS>ATOM
      1 C          -4.5343   -2.0825   -0.0001 C.ar    1  LIG1        0.0283
      2 C          -3.1423   -2.1245   -0.0001 C.ar    1  LIG1       -0.0436
      3 C          -2.4579   -0.9153   -0.0001 C.ar    1  LIG1       -0.0583
      4 C          -3.1806    0.2712   -0.0002 C.ar    1  LIG1       -0.0356
      5 C          -4.5776    0.2123   -0.0002 C.ar    1  LIG1        0.0724
      6 N          -5.2304   -0.9517   -0.0001 N.ar    1  LIG1       -0.2549
      7 H          -1.3758   -0.8919   -0.0001 H       1  LIG1        0.0619
      8 H          -2.6231   -3.0724   -0.0000 H       1  LIG1        0.0633
      9 H          -5.1135   -2.9980   -0.0001 H       1  LIG1        0.0830
     10 H          -2.6620    1.2183   -0.0002 H       1  LIG1        0.0639
     11 C          -6.8248    1.3058   -0.0000 C.ar    1  LIG1        0.0367
     12 C          -5.4312    1.4413   -0.0003 C.ar    1  LIG1        0.0184
     13 C          -4.9117    2.7349   -0.0006 C.ar    1  LIG1       -0.0497
     14 C          -5.7845    3.8158   -0.0007 C.ar    1  LIG1       -0.0430
     15 C          -7.1525    3.5642   -0.0004 C.ar    1  LIG1        0.0276
     16 N          -7.6661    2.3352   -0.0001 N.ar    1  LIG1       -0.2626
     17 H          -3.8447    2.9133   -0.0008 H       1  LIG1        0.0625
     18 H          -7.8644    4.3810   -0.0004 H       1  LIG1        0.0829
     19 H          -7.2546    0.3131    0.0002 H       1  LIG1        0.0836
     20 H          -5.4144    4.8317   -0.0009 H       1  LIG1        0.0633
@<TRIPOS>BOND
     1    20    14    1
     2    17    13    1
     3    14    13   ar
     4    14    15   ar
     5    13    12   ar
     6    18    15    1
     7    15    16   ar
     8    12     5    1
     9    12    11   ar
    10     5     4   ar
    11     5     6   ar
    12    10     4    1
    13     4     3   ar
    14     6     1   ar
    15     3     7    1
    16     3     2   ar
    17     1     2   ar
    18     1     9    1
    19     2     8    1
    20    16    11   ar
    21    11    19    1
