@<TRIPOS>MOLECULE
mol_data/opt/m06hf/geoms/mol2/6aa6aa6aa-6aa.out
 38 41 0 0 0
SMALL
GASTEIGER

@<TRIPOS>ATOM
      1 C          -4.5122   -2.2359   -0.0005 C.ar    1  LIG1        0.0283
      2 C          -3.1237   -2.3386   -0.0005 C.ar    1  LIG1       -0.0436
      3 C          -2.3864   -1.1606   -0.0004 C.ar    1  LIG1       -0.0583
      4 C          -3.0551    0.0572   -0.0003 C.ar    1  LIG1       -0.0356
      5 C          -4.4531    0.0589   -0.0003 C.ar    1  LIG1        0.0724
      6 N          -5.1570   -1.0751   -0.0004 N.ar    1  LIG1       -0.2549
      7 H          -1.3045   -1.1863   -0.0004 H       1  LIG1        0.0619
      8 H          -2.6456   -3.3078   -0.0006 H       1  LIG1        0.0633
      9 H          -5.1314   -3.1249   -0.0006 H       1  LIG1        0.0830
     10 H          -2.4951    0.9805   -0.0002 H       1  LIG1        0.0639
     11 C          -6.6532    1.2422    0.0001 C.ar    1  LIG1        0.0374
     12 C          -5.2549    1.3203   -0.0002 C.ar    1  LIG1        0.0185
     13 C          -4.6963    2.5961   -0.0004 C.ar    1  LIG1       -0.0491
     14 C          -5.5240    3.7107   -0.0003 C.ar    1  LIG1       -0.0350
     15 C          -6.9079    3.5255    0.0000 C.ar    1  LIG1        0.0724
     16 N          -7.4471    2.3034    0.0002 N.ar    1  LIG1       -0.2543
     17 H          -3.6245    2.7419   -0.0007 H       1  LIG1        0.0625
     18 H          -7.1255    0.2692    0.0002 H       1  LIG1        0.0836
     19 H          -5.0888    4.6988   -0.0005 H       1  LIG1        0.0639
     20 C          -7.4920    6.0007    0.0002 C.ar    1  LIG1        0.0374
     21 C          -7.8789    4.6593    0.0002 C.ar    1  LIG1        0.0185
     22 C          -9.2495    4.3975    0.0003 C.ar    1  LIG1       -0.0491
     23 C         -10.1490    5.4512    0.0005 C.ar    1  LIG1       -0.0350
     24 C          -9.6591    6.7617    0.0004 C.ar    1  LIG1        0.0724
     25 N          -8.3490    7.0135    0.0003 N.ar    1  LIG1       -0.2543
     26 H          -9.5808    3.3676    0.0004 H       1  LIG1        0.0625
     27 H          -6.4470    6.2841    0.0000 H       1  LIG1        0.0836
     28 H         -11.2098    5.2502    0.0006 H       1  LIG1        0.0639
     29 C         -11.9457    7.8659    0.0006 C.ar    1  LIG1        0.0367
     30 C         -10.5518    7.9607    0.0005 C.ar    1  LIG1        0.0184
     31 C          -9.9929    9.2395    0.0006 C.ar    1  LIG1       -0.0497
     32 C         -10.8335   10.3433    0.0007 C.ar    1  LIG1       -0.0430
     33 C         -12.2100   10.1311    0.0007 C.ar    1  LIG1        0.0276
     34 N         -12.7586    8.9185    0.0007 N.ar    1  LIG1       -0.2626
     35 H          -8.9157    9.3368    0.0005 H       1  LIG1        0.0625
     36 H         -12.8988   10.9676    0.0008 H       1  LIG1        0.0829
     37 H         -12.4406    6.9028    0.0006 H       1  LIG1        0.0836
     38 H         -10.4363   11.3487    0.0007 H       1  LIG1        0.0633
@<TRIPOS>BOND
     1    17    13    1
     2     8     2    1
     3     9     1    1
     4     2     1   ar
     5     2     3   ar
     6     1     6   ar
     7    19    14    1
     8     7     3    1
     9     3     4   ar
    10     6     5   ar
    11    13    14   ar
    12    13    12   ar
    13     5     4   ar
    14     5    12    1
    15     4    10    1
    16    14    15   ar
    17    12    11   ar
    18    15    21    1
    19    15    16   ar
    20    27    20    1
    21    11    16   ar
    22    11    18    1
    23    20    21   ar
    24    20    25   ar
    25    21    22   ar
    26    25    24   ar
    27    22    26    1
    28    22    23   ar
    29    24    23   ar
    30    24    30    1
    31    23    28    1
    32    35    31    1
    33    30    31   ar
    34    30    29   ar
    35    37    29    1
    36    31    32   ar
    37    29    34   ar
    38    32    38    1
    39    32    33   ar
    40    34    33   ar
    41    33    36    1
