@<TRIPOS>MOLECULE
mol_data/opt/m06hf/geoms/mol2/6aa6aa6aa-6aa-.out
 38 41 0 0 0
SMALL
GASTEIGER

@<TRIPOS>ATOM
      1 C          -4.5144   -2.2353   -0.0006 C.ar    1  LIG1        0.0283
      2 C          -3.1260   -2.3402   -0.0006 C.ar    1  LIG1       -0.0436
      3 C          -2.3869   -1.1633   -0.0004 C.ar    1  LIG1       -0.0583
      4 C          -3.0538    0.0556   -0.0003 C.ar    1  LIG1       -0.0356
      5 C          -4.4518    0.0594   -0.0003 C.ar    1  LIG1        0.0724
      6 N          -5.1574   -1.0736   -0.0005 N.ar    1  LIG1       -0.2549
      7 H          -1.3050   -1.1904   -0.0004 H       1  LIG1        0.0619
      8 H          -2.6494   -3.3101   -0.0007 H       1  LIG1        0.0633
      9 H          -5.1349   -3.1235   -0.0007 H       1  LIG1        0.0830
     10 H          -2.4925    0.9780   -0.0001 H       1  LIG1        0.0639
     11 C          -6.6504    1.2455    0.0000 C.ar    1  LIG1        0.0374
     12 C          -5.2519    1.3218   -0.0002 C.ar    1  LIG1        0.0185
     13 C          -4.6916    2.5969   -0.0003 C.ar    1  LIG1       -0.0491
     14 C          -5.5179    3.7127   -0.0002 C.ar    1  LIG1       -0.0350
     15 C          -6.9020    3.5291    0.0000 C.ar    1  LIG1        0.0724
     16 N          -7.4428    2.3076    0.0002 N.ar    1  LIG1       -0.2543
     17 H          -3.6196    2.7414   -0.0006 H       1  LIG1        0.0625
     18 H          -7.1237    0.2729    0.0001 H       1  LIG1        0.0836
     19 H          -5.0815    4.7002   -0.0003 H       1  LIG1        0.0639
     20 C          -7.4834    6.0055    0.0001 C.ar    1  LIG1        0.0374
     21 C          -7.8717    4.6641    0.0002 C.ar    1  LIG1        0.0185
     22 C          -9.2422    4.4035    0.0004 C.ar    1  LIG1       -0.0491
     23 C         -10.1400    5.4587    0.0006 C.ar    1  LIG1       -0.0350
     24 C          -9.6494    6.7686    0.0004 C.ar    1  LIG1        0.0724
     25 N          -8.3389    7.0190    0.0002 N.ar    1  LIG1       -0.2543
     26 H          -9.5746    3.3739    0.0005 H       1  LIG1        0.0625
     27 H          -6.4381    6.2879   -0.0001 H       1  LIG1        0.0836
     28 H         -11.2011    5.2585    0.0008 H       1  LIG1        0.0639
     29 C          -9.9816    9.2451    0.0007 C.ar    1  LIG1        0.0367
     30 C         -10.5467    7.9639    0.0005 C.ar    1  LIG1        0.0184
     31 C         -11.9380    7.8749    0.0005 C.ar    1  LIG1       -0.0497
     32 C         -12.6911    9.0422    0.0006 C.ar    1  LIG1       -0.0430
     33 C         -12.0240   10.2628    0.0007 C.ar    1  LIG1        0.0276
     34 N         -10.6958   10.3664    0.0008 N.ar    1  LIG1       -0.2626
     35 H         -12.4402    6.9169    0.0003 H       1  LIG1        0.0625
     36 H         -12.5772   11.1944    0.0008 H       1  LIG1        0.0829
     37 H          -8.9043    9.3425    0.0007 H       1  LIG1        0.0836
     38 H         -13.7718    9.0088    0.0005 H       1  LIG1        0.0633
@<TRIPOS>BOND
     1     9     1    1
     2     8     2    1
     3     1     2   ar
     4     1     6   ar
     5     2     3   ar
     6    17    13    1
     7     6     5   ar
     8     3     7    1
     9     3     4   ar
    10    13    12   ar
    11    13    14   ar
    12     5     4   ar
    13     5    12    1
    14    19    14    1
    15     4    10    1
    16    12    11   ar
    17    14    15   ar
    18    27    20    1
    19    11    18    1
    20    11    16   ar
    21    15    16   ar
    22    15    21    1
    23    20    21   ar
    24    20    25   ar
    25    21    22   ar
    26    25    24   ar
    27    35    31    1
    28    24    30    1
    29    24    23   ar
    30    22    26    1
    31    22    23   ar
    32    31    30   ar
    33    31    32   ar
    34    30    29   ar
    35    38    32    1
    36    23    28    1
    37    32    33   ar
    38    29    37    1
    39    29    34   ar
    40    33    34   ar
    41    33    36    1
