@<TRIPOS>MOLECULE
mol_data/opt/m06hf/geoms/mol2/6aa6aa-6aa-6aa-.out
 38 41 0 0 0
SMALL
GASTEIGER

@<TRIPOS>ATOM
      1 C          -4.3870   -2.2326   -0.0004 C.ar    1  LIG1        0.0283
      2 C          -2.9952   -2.2689   -0.0005 C.ar    1  LIG1       -0.0436
      3 C          -2.3142   -1.0577   -0.0005 C.ar    1  LIG1       -0.0583
      4 C          -3.0393    0.1275   -0.0004 C.ar    1  LIG1       -0.0356
      5 C          -4.4355    0.0628   -0.0003 C.ar    1  LIG1        0.0724
      6 N          -5.0857   -1.1031   -0.0003 N.ar    1  LIG1       -0.2549
      7 H          -1.2325   -1.0318   -0.0006 H       1  LIG1        0.0619
      8 H          -2.4715   -3.2144   -0.0006 H       1  LIG1        0.0633
      9 H          -4.9636   -3.1496   -0.0005 H       1  LIG1        0.0830
     10 H          -2.5220    1.0753   -0.0004 H       1  LIG1        0.0639
     11 C          -4.7966    2.5827   -0.0002 C.ar    1  LIG1        0.0374
     12 C          -5.3018    1.2810   -0.0002 C.ar    1  LIG1        0.0185
     13 C          -6.6902    1.1434   -0.0001 C.ar    1  LIG1       -0.0491
     14 C          -7.4918    2.2732    0.0000 C.ar    1  LIG1       -0.0350
     15 C          -6.8867    3.5342    0.0000 C.ar    1  LIG1        0.0724
     16 N          -5.5595    3.6680   -0.0001 N.ar    1  LIG1       -0.2543
     17 H          -7.1140    0.1482   -0.0001 H       1  LIG1        0.0625
     18 H          -3.7307    2.7726   -0.0003 H       1  LIG1        0.0836
     19 H          -8.5665    2.1675    0.0001 H       1  LIG1        0.0639
     20 C          -6.9991    6.0311    0.0003 C.ar    1  LIG1        0.0374
     21 C          -7.6723    4.8035    0.0002 C.ar    1  LIG1        0.0185
     22 C          -9.0646    4.8490    0.0001 C.ar    1  LIG1       -0.0491
     23 C          -9.7128    6.0762    0.0002 C.ar    1  LIG1       -0.0350
     24 C          -8.9503    7.2459    0.0004 C.ar    1  LIG1        0.0724
     25 N          -7.6149    7.2046    0.0004 N.ar    1  LIG1       -0.2543
     26 H          -9.6562    3.9433   -0.0000 H       1  LIG1        0.0625
     27 H          -5.9175    6.0389    0.0004 H       1  LIG1        0.0836
     28 H         -10.7922    6.1088    0.0002 H       1  LIG1        0.0639
     29 C          -8.7277    9.7326    0.0012 C.ar    1  LIG1        0.0367
     30 C          -9.5636    8.6090    0.0005 C.ar    1  LIG1        0.0184
     31 C         -10.9394    8.8333    0.0001 C.ar    1  LIG1       -0.0497
     32 C         -11.4135   10.1391    0.0003 C.ar    1  LIG1       -0.0430
     33 C         -10.4909   11.1805    0.0010 C.ar    1  LIG1        0.0276
     34 N          -9.1735   10.9849    0.0014 N.ar    1  LIG1       -0.2626
     35 H         -11.6432    8.0115   -0.0005 H       1  LIG1        0.0625
     36 H         -10.8231   12.2119    0.0012 H       1  LIG1        0.0829
     37 H          -7.6558    9.5875    0.0015 H       1  LIG1        0.0836
     38 H         -12.4741   10.3482   -0.0001 H       1  LIG1        0.0633
@<TRIPOS>BOND
     1     8     2    1
     2     7     3    1
     3     2     3   ar
     4     2     1   ar
     5     3     4   ar
     6    35    31    1
     7     9     1    1
     8     1     6   ar
     9     4    10    1
    10     4     5   ar
    11     6     5   ar
    12     5    12    1
    13    18    11    1
    14    12    11   ar
    15    12    13   ar
    16    11    16   ar
    17    17    13    1
    18    13    14   ar
    19    16    15   ar
    20    38    32    1
    21    26    22    1
    22    14    15   ar
    23    14    19    1
    24    15    21    1
    25    31    32   ar
    26    31    30   ar
    27    22    21   ar
    28    22    23   ar
    29    21    20   ar
    30    23    28    1
    31    23    24   ar
    32    32    33   ar
    33    20    27    1
    34    20    25   ar
    35    24    25   ar
    36    24    30    1
    37    30    29   ar
    38    33    36    1
    39    33    34   ar
    40    29    34   ar
    41    29    37    1
