@<TRIPOS>MOLECULE
mol_data/opt/m06hf/geoms/mol2/6aa6aa-6aa6aa-.out
 38 41 0 0 0
SMALL
GASTEIGER

@<TRIPOS>ATOM
      1 C          -4.4238   -2.2427   -0.0004 C.ar    1  LIG1        0.0283
      2 C          -3.0318   -2.2896   -0.0006 C.ar    1  LIG1       -0.0436
      3 C          -2.3420   -1.0835   -0.0006 C.ar    1  LIG1       -0.0583
      4 C          -3.0591    0.1067   -0.0004 C.ar    1  LIG1       -0.0356
      5 C          -4.4560    0.0518   -0.0003 C.ar    1  LIG1        0.0724
      6 N          -5.1148   -1.1088   -0.0003 N.ar    1  LIG1       -0.2549
      7 H          -1.2600   -1.0647   -0.0007 H       1  LIG1        0.0619
      8 H          -2.5160   -3.2394   -0.0006 H       1  LIG1        0.0633
      9 H          -5.0062   -3.1560   -0.0004 H       1  LIG1        0.0830
     10 H          -2.5359    1.0511   -0.0005 H       1  LIG1        0.0639
     11 C          -4.7897    2.5739   -0.0001 C.ar    1  LIG1        0.0374
     12 C          -5.3109    1.2780   -0.0002 C.ar    1  LIG1        0.0185
     13 C          -6.7003    1.1563   -0.0001 C.ar    1  LIG1       -0.0491
     14 C          -7.4892    2.2961   -0.0000 C.ar    1  LIG1       -0.0350
     15 C          -6.8688    3.5493    0.0000 C.ar    1  LIG1        0.0724
     16 N          -5.5396    3.6676    0.0000 N.ar    1  LIG1       -0.2543
     17 H          -7.1350    0.1656   -0.0002 H       1  LIG1        0.0625
     18 H          -3.7216    2.7504   -0.0001 H       1  LIG1        0.0836
     19 H          -8.5649    2.2027    0.0000 H       1  LIG1        0.0639
     20 C          -9.0256    4.8960    0.0002 C.ar    1  LIG1        0.0374
     21 C          -7.6303    4.8335    0.0002 C.ar    1  LIG1        0.0185
     22 C          -6.9439    6.0479    0.0002 C.ar    1  LIG1       -0.0491
     23 C          -7.6545    7.2376    0.0004 C.ar    1  LIG1       -0.0350
     24 C          -9.0525    7.1928    0.0004 C.ar    1  LIG1        0.0724
     25 N          -9.7103    6.0320    0.0003 N.ar    1  LIG1       -0.2543
     26 H          -5.8621    6.0332    0.0002 H       1  LIG1        0.0625
     27 H          -9.6278    3.9963    0.0002 H       1  LIG1        0.0836
     28 H          -7.1239    8.1779    0.0004 H       1  LIG1        0.0639
     29 C          -9.3680    9.7127    0.0006 C.ar    1  LIG1        0.0367
     30 C          -9.9033    8.4218    0.0005 C.ar    1  LIG1        0.0184
     31 C         -11.2936    8.3009    0.0006 C.ar    1  LIG1       -0.0497
     32 C         -12.0709    9.4504    0.0007 C.ar    1  LIG1       -0.0430
     33 C         -11.4298   10.6870    0.0007 C.ar    1  LIG1        0.0276
     34 N         -10.1055   10.8192    0.0007 N.ar    1  LIG1       -0.2626
     35 H         -11.7298    7.3109    0.0005 H       1  LIG1        0.0625
     36 H         -12.0024   11.6070    0.0008 H       1  LIG1        0.0829
     37 H          -8.2973    9.8738    0.0005 H       1  LIG1        0.0836
     38 H         -13.1504    9.3953    0.0007 H       1  LIG1        0.0633
@<TRIPOS>BOND
     1     7     3    1
     2     8     2    1
     3     3     2   ar
     4     3     4   ar
     5     2     1   ar
     6    10     4    1
     7     4     5   ar
     8     1     9    1
     9     1     6   ar
    10     5     6   ar
    11     5    12    1
    12    17    13    1
    13    12    13   ar
    14    12    11   ar
    15    13    14   ar
    16    18    11    1
    17    11    16   ar
    18    14    19    1
    19    14    15   ar
    20    16    15   ar
    21    15    21    1
    22    21    22   ar
    23    21    20   ar
    24    26    22    1
    25    27    20    1
    26    22    23   ar
    27    20    25   ar
    28    25    24   ar
    29    23    28    1
    30    23    24   ar
    31    24    30    1
    32    30    31   ar
    33    30    29   ar
    34    35    31    1
    35    37    29    1
    36    31    32   ar
    37    29    34   ar
    38    32    38    1
    39    32    33   ar
    40    34    33   ar
    41    33    36    1
