@<TRIPOS>MOLECULE
mol_data/opt/m06hf/geoms/mol2/6aa6aa-6aa.out
 29 31 0 0 0
SMALL
GASTEIGER

@<TRIPOS>ATOM
      1 C          -4.4775   -2.1548   -0.0002 C.ar    1  LIG1        0.0283
      2 C          -3.0856   -2.2025   -0.0002 C.ar    1  LIG1       -0.0436
      3 C          -2.3954   -0.9966   -0.0003 C.ar    1  LIG1       -0.0583
      4 C          -3.1119    0.1939   -0.0003 C.ar    1  LIG1       -0.0356
      5 C          -4.5089    0.1400   -0.0002 C.ar    1  LIG1        0.0724
      6 N          -5.1680   -1.0206   -0.0002 N.ar    1  LIG1       -0.2549
      7 H          -1.3134   -0.9783   -0.0003 H       1  LIG1        0.0619
      8 H          -2.5703   -3.1526   -0.0003 H       1  LIG1        0.0633
      9 H          -5.0606   -3.0678   -0.0002 H       1  LIG1        0.0830
     10 H          -2.5884    1.1381   -0.0003 H       1  LIG1        0.0639
     11 C          -4.8436    2.6624   -0.0002 C.ar    1  LIG1        0.0374
     12 C          -5.3635    1.3663   -0.0002 C.ar    1  LIG1        0.0185
     13 C          -6.7529    1.2441   -0.0002 C.ar    1  LIG1       -0.0491
     14 C          -7.5421    2.3834   -0.0002 C.ar    1  LIG1       -0.0350
     15 C          -6.9232    3.6377   -0.0002 C.ar    1  LIG1        0.0724
     16 N          -5.5942    3.7560   -0.0002 N.ar    1  LIG1       -0.2543
     17 H          -7.1875    0.2534   -0.0002 H       1  LIG1        0.0625
     18 H          -3.7755    2.8396   -0.0002 H       1  LIG1        0.0836
     19 H          -8.6175    2.2892   -0.0002 H       1  LIG1        0.0639
     20 C          -9.0856    4.9698   -0.0001 C.ar    1  LIG1        0.0367
     21 C          -7.6890    4.9214   -0.0001 C.ar    1  LIG1        0.0184
     22 C          -7.0023    6.1362   -0.0002 C.ar    1  LIG1       -0.0497
     23 C          -7.7256    7.3204   -0.0001 C.ar    1  LIG1       -0.0430
     24 C          -9.1168    7.2501   -0.0001 C.ar    1  LIG1        0.0276
     25 N          -9.7864    6.0999   -0.0001 N.ar    1  LIG1       -0.2626
     26 H          -5.9205    6.1222   -0.0002 H       1  LIG1        0.0625
     27 H          -9.7163    8.1527   -0.0001 H       1  LIG1        0.0829
     28 H          -9.6765    4.0626   -0.0001 H       1  LIG1        0.0836
     29 H          -7.2276    8.2798   -0.0001 H       1  LIG1        0.0633
@<TRIPOS>BOND
     1     7     3    1
     2    10     4    1
     3     3     4   ar
     4     3     2   ar
     5     4     5   ar
     6     8     2    1
     7     2     1   ar
     8     5    12    1
     9     5     6   ar
    10    17    13    1
    11    12    13   ar
    12    12    11   ar
    13     1     6   ar
    14     1     9    1
    15    13    14   ar
    16    11    18    1
    17    11    16   ar
    18    14    19    1
    19    14    15   ar
    20    26    22    1
    21    16    15   ar
    22    15    21    1
    23    22    21   ar
    24    22    23   ar
    25    21    20   ar
    26    29    23    1
    27    23    24   ar
    28    20    28    1
    29    20    25   ar
    30    24    25   ar
    31    24    27    1
