@<TRIPOS>MOLECULE
mol_data/opt/m06hf/geoms/mol2/6ad12af6fa4ha.out
 42 45 0 0 0
SMALL
GASTEIGER

@<TRIPOS>ATOM
      1 C          -4.3266   -2.0909   -0.1571 C.ar    1  LIG1        0.0285
      2 C          -2.9370   -2.1179   -0.0413 C.ar    1  LIG1       -0.0423
      3 C          -2.2718   -0.9085    0.0794 C.ar    1  LIG1       -0.0407
      4 C          -3.0163    0.2707    0.0799 C.ar    1  LIG1        0.0807
      5 C          -4.4122    0.1988   -0.0470 C.ar    1  LIG1        0.1234
      6 N          -5.0398   -0.9718   -0.1629 N.ar    1  LIG1       -0.2506
      7 H          -1.1959   -0.8587    0.1780 H       1  LIG1        0.0631
      8 H          -2.4021   -3.0562   -0.0453 H       1  LIG1        0.0633
      9 H          -4.8899   -3.0106   -0.2536 H       1  LIG1        0.0830
     10 N          -1.7590    2.5247    0.3166 N.1     1  LIG1       -0.1908
     11 C          -2.3294    1.5341    0.2161 C.1     1  LIG1        0.1014
     12 C          -5.2821    1.3854   -0.0673 C.ar    1  LIG1        0.1587
     13 C          -5.1012    2.7253   -0.2420 C.ar    1  LIG1        0.0280
     14 C          -6.4137    3.2947   -0.2263 C.ar    1  LIG1        0.1634
     15 C          -7.2965    2.2719   -0.0235 C.ar    1  LIG1        0.1820
     16 O          -6.5992    1.1154    0.0642 O.2     1  LIG1       -0.4493
     17 H          -4.1786    3.2613   -0.3841 H       1  LIG1        0.0693
     18 O          -6.6771    4.6169   -0.3989 O.3     1  LIG1       -0.5032
     19 H          -7.5013    4.7234   -0.8899 H       1  LIG1        0.2923
     20 C          -9.4844    1.0463   -0.2677 C.ar    1  LIG1        0.2239
     21 C          -8.7537    2.2145    0.0662 C.ar    1  LIG1        0.0822
     22 C          -9.4858    3.3289    0.4696 C.ar    1  LIG1       -0.0438
     23 C         -10.8738    3.2892    0.4814 C.ar    1  LIG1       -0.0347
     24 C         -11.4991    2.1015    0.0867 C.ar    1  LIG1        0.0766
     25 N         -10.8015    1.0155   -0.2579 N.ar    1  LIG1       -0.2124
     26 H          -8.9583    4.2141    0.8058 H       1  LIG1        0.0627
     27 O          -8.8958   -0.1043   -0.6216 O.3     1  LIG1       -0.4919
     28 H          -7.9368   -0.0868   -0.4923 H       1  LIG1        0.2938
     29 H         -11.4628    4.1317    0.8152 H       1  LIG1        0.0639
     30 C         -13.8727    2.9821   -0.1994 C.ar    1  LIG1        0.0338
     31 C         -15.2497    2.7503   -0.0881 C.ar    1  LIG1       -0.0404
     32 C         -12.9833    1.9390    0.1134 C.ar    1  LIG1        0.0211
     33 C         -15.7351    1.5118    0.3036 C.ar    1  LIG1       -0.0600
     34 H         -15.9371    3.5547   -0.3214 H       1  LIG1        0.0636
     35 C         -13.4921    0.6874    0.4715 C.ar    1  LIG1       -0.0508
     36 C         -14.8570    0.4642    0.5762 C.ar    1  LIG1       -0.0610
     37 H         -12.7787   -0.1026    0.6677 H       1  LIG1        0.0625
     38 H         -16.8042    1.3617    0.3834 H       1  LIG1        0.0618
     39 N         -13.4163    4.2474   -0.5982 N.pl3   1  LIG1       -0.3575
     40 H         -12.5648    4.2229   -1.1462 H       1  LIG1        0.1423
     41 H         -14.1297    4.8013   -1.0533 H       1  LIG1        0.1423
     42 H         -15.2314   -0.5075    0.8670 H       1  LIG1        0.0618
@<TRIPOS>BOND
     1    40    39    1
     2    41    39    1
     3    19    18    1
     4    27    28    1
     5    27    20    1
     6    39    30    1
     7    18    14    1
     8    17    13    1
     9    34    31    1
    10    20    25   ar
    11    20    21   ar
    12    25    24   ar
    13     9     1    1
    14    13    14   ar
    15    13    12   ar
    16    14    15   ar
    17    30    31   ar
    18    30    32   ar
    19     6     1   ar
    20     6     5   ar
    21     1     2   ar
    22    31    33   ar
    23    12     5    1
    24    12    16   ar
    25     5     4   ar
    26     8     2    1
    27     2     3   ar
    28    15    16   ar
    29    15    21    1
    30    21    22   ar
    31     3     4   ar
    32     3     7    1
    33     4    11    1
    34    24    32    1
    35    24    23   ar
    36    32    35   ar
    37    11    10    3
    38    33    38    1
    39    33    36   ar
    40    22    23   ar
    41    22    26    1
    42    35    36   ar
    43    35    37    1
    44    23    29    1
    45    36    42    1
