@<TRIPOS>MOLECULE
mol_data/opt/m06hf/geoms/mol2/6ad12fl-13ai-6hl.out
 50 53 0 0 0
SMALL
GASTEIGER

@<TRIPOS>ATOM
      1 C          -4.3664   -2.0494    1.1968 C.ar    1  LIG1        0.0285
      2 C          -3.0008   -2.1651    0.9212 C.ar    1  LIG1       -0.0423
      3 C          -2.3542   -1.0668    0.3845 C.ar    1  LIG1       -0.0407
      4 C          -3.0952    0.0960    0.1630 C.ar    1  LIG1        0.0808
      5 C          -4.4521    0.1412    0.5254 C.ar    1  LIG1        0.1270
      6 N          -5.0665   -0.9392    1.0153 N.ar    1  LIG1       -0.2505
      7 H          -1.3070   -1.0956    0.1160 H       1  LIG1        0.0631
      8 H          -2.4781   -3.0914    1.1091 H       1  LIG1        0.0633
      9 H          -4.9168   -2.8952    1.5910 H       1  LIG1        0.0830
     10 N          -1.9904    2.1196   -1.0199 N.1     1  LIG1       -0.1908
     11 C          -2.4757    1.2194   -0.4940 C.1     1  LIG1        0.1014
     12 C          -5.2714    1.3476    0.3926 C.ar    1  LIG1        0.2001
     13 C          -5.0447    2.6932    0.5465 C.ar    1  LIG1        0.2077
     14 C          -6.3250    3.3310    0.4089 C.ar    1  LIG1        0.2098
     15 C          -7.2263    2.3342    0.1841 C.ar    1  LIG1        0.1970
     16 O          -6.5977    1.1429    0.1808 O.2     1  LIG1       -0.4442
     17 O          -3.9229    3.3744    0.8783 O.3     1  LIG1       -0.5008
     18 H          -3.1911    3.1717    0.2774 H       1  LIG1        0.2924
     19 O          -6.6055    4.6504    0.5250 O.3     1  LIG1       -0.4884
     20 C          -5.9008    5.4759   -0.4060 C.3     1  LIG1        0.0791
     21 H          -6.2405    6.4918   -0.2230 H       1  LIG1        0.0660
     22 H          -4.8280    5.3992   -0.2324 H       1  LIG1        0.0660
     23 H          -6.1453    5.1733   -1.4259 H       1  LIG1        0.0660
     24 C          -8.6603    2.3455   -0.0238 C.ar    1  LIG1        0.0866
     25 C          -9.5591    3.3946   -0.0534 C.ar    1  LIG1       -0.0298
     26 C         -10.8426    2.8441   -0.2985 C.ar    1  LIG1       -0.0244
     27 C         -10.6759    1.4697   -0.4059 C.ar    1  LIG1        0.0533
     28 N          -9.3468    1.1924   -0.2440 N.ar    1  LIG1       -0.3514
     29 H          -8.9468    0.2624   -0.2897 H       1  LIG1        0.1660
     30 H          -9.3062    4.4323    0.0878 H       1  LIG1        0.0643
     31 C         -12.1290    3.6230   -0.4428 C.3     1  LIG1       -0.0377
     32 H         -12.6021    3.7958    0.5269 H       1  LIG1        0.0278
     33 H         -12.8322    3.0898   -1.0843 H       1  LIG1        0.0278
     34 H         -11.9193    4.5940   -0.8914 H       1  LIG1        0.0278
     35 C         -11.3739   -0.7500   -1.3615 C.ar    1  LIG1        0.1255
     36 C         -11.6656    0.3955   -0.6005 C.ar    1  LIG1        0.0415
     37 C         -12.9219    0.4746    0.0016 C.ar    1  LIG1       -0.0060
     38 C         -13.8320   -0.5633   -0.1734 C.ar    1  LIG1        0.1389
     39 C         -13.4326   -1.6619   -0.9336 C.ar    1  LIG1        0.0713
     40 N         -12.2411   -1.7448   -1.5105 N.ar    1  LIG1       -0.2364
     41 H         -13.1476    1.3306    0.6223 H       1  LIG1        0.0662
     42 H         -14.1203   -2.4874   -1.0686 H       1  LIG1        0.0868
     43 N         -10.1144   -0.9167   -1.9602 N.pl3   1  LIG1       -0.3426
     44 H         -10.1195   -1.7374   -2.5543 H       1  LIG1        0.1437
     45 H          -9.7905   -0.0907   -2.4532 H       1  LIG1        0.1437
     46 O         -15.0845   -0.6058    0.3530 O.3     1  LIG1       -0.4936
     47 C         -15.4811    0.4777    1.1701 C.3     1  LIG1        0.0789
     48 H         -16.4972    0.2581    1.4852 H       1  LIG1        0.0660
     49 H         -14.8319    0.5597    2.0460 H       1  LIG1        0.0660
     50 H         -15.4631    1.4155    0.6073 H       1  LIG1        0.0660
@<TRIPOS>BOND
     1    44    43    1
     2    45    43    1
     3    43    35    1
     4    40    35   ar
     5    40    39   ar
     6    23    20    1
     7    35    36   ar
     8    33    31    1
     9    42    39    1
    10    10    11    3
    11    39    38   ar
    12    34    31    1
    13    36    27    1
    14    36    37   ar
    15    11     4    1
    16    31    26    1
    17    31    32    1
    18    20    22    1
    19    20    21    1
    20    20    19    1
    21    27    26   ar
    22    27    28   ar
    23    26    25   ar
    24    29    28    1
    25    28    24   ar
    26    38    37   ar
    27    38    46    1
    28    25    24   ar
    29    25    30    1
    30    24    15    1
    31    37    41    1
    32     7     3    1
    33     4     3   ar
    34     4     5   ar
    35    16    15   ar
    36    16    12   ar
    37    15    14   ar
    38    18    17    1
    39    46    47    1
    40     3     2   ar
    41    12     5    1
    42    12    13   ar
    43    14    19    1
    44    14    13   ar
    45     5     6   ar
    46    13    17    1
    47    50    47    1
    48     2     8    1
    49     2     1   ar
    50     6     1   ar
    51    47    48    1
    52    47    49    1
    53     1     9    1
