@<TRIPOS>MOLECULE
mol_data/opt/m06hf/geoms/mol2/6ad6ad-.out
 22 23 0 0 0
SMALL
GASTEIGER

@<TRIPOS>ATOM
      1 C          -4.5907   -2.0239    0.0001 C.ar    1  LIG1        0.0283
      2 C          -3.2028   -2.1435    0.0000 C.ar    1  LIG1       -0.0423
      3 C          -2.4635   -0.9745   -0.0002 C.ar    1  LIG1       -0.0408
      4 C          -3.1263    0.2571   -0.0004 C.ar    1  LIG1        0.0777
      5 C          -4.5317    0.2885   -0.0002 C.ar    1  LIG1        0.0898
      6 N          -5.2171   -0.8560    0.0001 N.ar    1  LIG1       -0.2536
      7 H          -1.3819   -0.9891   -0.0004 H       1  LIG1        0.0631
      8 H          -2.7272   -3.1133    0.0001 H       1  LIG1        0.0633
      9 H          -5.2244   -2.9023    0.0003 H       1  LIG1        0.0830
     10 N          -1.5402    2.3078   -0.0010 N.1     1  LIG1       -0.1908
     11 C          -2.2776    1.4285   -0.0007 C.1     1  LIG1        0.1013
     12 C          -4.9255    2.8368   -0.0000 C.ar    1  LIG1        0.0368
     13 C          -5.3942    1.5176   -0.0002 C.ar    1  LIG1        0.0209
     14 C          -6.7777    1.3265   -0.0005 C.ar    1  LIG1       -0.0322
     15 C          -7.6061    2.4402   -0.0005 C.ar    1  LIG1        0.0704
     16 C          -7.0370    3.7173   -0.0003 C.ar    1  LIG1        0.0449
     17 N          -5.7268    3.9027   -0.0000 N.ar    1  LIG1       -0.2613
     18 H          -7.1796    0.3230   -0.0006 H       1  LIG1        0.0638
     19 H          -7.6666    4.5985   -0.0003 H       1  LIG1        0.0842
     20 H          -3.8701    3.0655    0.0002 H       1  LIG1        0.0836
     21 N         -10.1886    2.1891   -0.0009 N.1     1  LIG1       -0.1908
     22 C          -9.0461    2.2943   -0.0007 C.1     1  LIG1        0.1007
@<TRIPOS>BOND
     1    10    11    3
     2    21    22    3
     3    22    15    1
     4    11     4    1
     5    18    14    1
     6    15    14   ar
     7    15    16   ar
     8    14    13   ar
     9     7     3    1
    10     4     3   ar
    11     4     5   ar
    12    19    16    1
    13    16    17   ar
    14     3     2   ar
    15    13     5    1
    16    13    12   ar
    17     5     6   ar
    18    17    12   ar
    19    12    20    1
    20     2     8    1
    21     2     1   ar
    22     6     1   ar
    23     1     9    1
