@<TRIPOS>MOLECULE
mol_data/opt/m06hf/geoms/mol2/6ad6ad-6ad.out
 32 34 0 0 0
SMALL
GASTEIGER

@<TRIPOS>ATOM
      1 C          -4.4975   -2.1249    0.3993 C.ar    1  LIG1        0.0283
      2 C          -3.1204   -2.2184    0.2062 C.ar    1  LIG1       -0.0423
      3 C          -2.4238   -1.0555   -0.0783 C.ar    1  LIG1       -0.0408
      4 C          -3.1251    0.1504   -0.1377 C.ar    1  LIG1        0.0777
      5 C          -4.5073    0.1545    0.1059 C.ar    1  LIG1        0.0898
      6 N          -5.1648   -0.9774    0.3518 N.ar    1  LIG1       -0.2536
      7 H          -1.3584   -1.0612   -0.2646 H       1  LIG1        0.0631
      8 H          -2.6203   -3.1744    0.2647 H       1  LIG1        0.0633
      9 H          -5.0883   -3.0092    0.6028 H       1  LIG1        0.0830
     10 N          -1.8019    2.2860   -0.7825 N.1     1  LIG1       -0.1908
     11 C          -2.4031    1.3520   -0.4952 C.1     1  LIG1        0.1013
     12 C          -4.9131    2.6398    0.5111 C.ar    1  LIG1        0.0375
     13 C          -5.3518    1.3843    0.0806 C.ar    1  LIG1        0.0209
     14 C          -6.6694    1.2766   -0.3500 C.ar    1  LIG1       -0.0316
     15 C          -7.4762    2.4103   -0.3561 C.ar    1  LIG1        0.0783
     16 C          -6.9527    3.6297    0.1060 C.ar    1  LIG1        0.0898
     17 N          -5.6912    3.7156    0.5204 N.ar    1  LIG1       -0.2530
     18 H          -7.0562    0.3221   -0.6814 H       1  LIG1        0.0638
     19 H          -3.9061    2.7872    0.8791 H       1  LIG1        0.0836
     20 N          -9.8775    2.1546   -1.3030 N.1     1  LIG1       -0.1908
     21 C          -8.8196    2.2913   -0.8801 C.1     1  LIG1        0.1013
     22 C          -9.0912    4.9587    0.4558 C.ar    1  LIG1        0.0368
     23 C          -7.7281    4.9025    0.1486 C.ar    1  LIG1        0.0209
     24 C          -7.0520    6.0996   -0.0737 C.ar    1  LIG1       -0.0322
     25 C          -7.7790    7.2829   -0.0203 C.ar    1  LIG1        0.0704
     26 C          -9.1453    7.2339    0.2747 C.ar    1  LIG1        0.0449
     27 N          -9.7800    6.0964    0.5181 N.ar    1  LIG1       -0.2613
     28 H          -5.9896    6.0982   -0.2782 H       1  LIG1        0.0638
     29 H          -9.7258    8.1472    0.3209 H       1  LIG1        0.0842
     30 H          -9.6491    4.0579    0.6780 H       1  LIG1        0.0836
     31 N          -6.6376    9.5696   -0.4637 N.1     1  LIG1       -0.1908
     32 C          -7.1404    8.5580   -0.2654 C.1     1  LIG1        0.1007
@<TRIPOS>BOND
     1    20    21    3
     2    21    15    1
     3    10    11    3
     4    18    14    1
     5    11     4    1
     6    31    32    3
     7    15    14   ar
     8    15    16   ar
     9    14    13   ar
    10    28    24    1
    11    32    25    1
    12     7     3    1
    13     4     3   ar
    14     4     5   ar
    15     3     2   ar
    16    24    25   ar
    17    24    23   ar
    18    25    26   ar
    19    13     5    1
    20    13    12   ar
    21     5     6   ar
    22    16    23    1
    23    16    17   ar
    24    23    22   ar
    25     2     8    1
    26     2     1   ar
    27    26    29    1
    28    26    27   ar
    29     6     1   ar
    30     1     9    1
    31    22    27   ar
    32    22    30    1
    33    12    17   ar
    34    12    19    1
