@<TRIPOS>MOLECULE
mol_data/opt/m06hf/geoms/mol2/6ad6ad6ad.out
 32 34 0 0 0
SMALL
GASTEIGER

@<TRIPOS>ATOM
      1 C          -4.6823   -2.1482   -0.0083 C.ar    1  LIG1        0.0283
      2 C          -3.3051   -2.3579   -0.0048 C.ar    1  LIG1       -0.0423
      3 C          -2.4894   -1.2408    0.0009 C.ar    1  LIG1       -0.0408
      4 C          -3.0711    0.0306    0.0026 C.ar    1  LIG1        0.0777
      5 C          -4.4711    0.1527   -0.0014 C.ar    1  LIG1        0.0898
      6 N          -5.2326   -0.9424   -0.0066 N.ar    1  LIG1       -0.2536
      7 H          -1.4110   -1.3265    0.0040 H       1  LIG1        0.0631
      8 H          -2.8954   -3.3575   -0.0064 H       1  LIG1        0.0633
      9 H          -5.3705   -2.9847   -0.0127 H       1  LIG1        0.0830
     10 N          -1.3851    2.0008    0.0128 N.1     1  LIG1       -0.1908
     11 C          -2.1584    1.1525    0.0086 C.1     1  LIG1        0.1013
     12 C          -6.6448    1.3547   -0.0014 C.ar    1  LIG1        0.0375
     13 C          -5.2425    1.4374   -0.0003 C.ar    1  LIG1        0.0209
     14 C          -4.7023    2.7165    0.0019 C.ar    1  LIG1       -0.0316
     15 C          -5.5537    3.8266    0.0028 C.ar    1  LIG1        0.0783
     16 C          -6.9447    3.6478    0.0010 C.ar    1  LIG1        0.0898
     17 N          -7.4417    2.4075   -0.0008 N.ar    1  LIG1       -0.2530
     18 H          -3.6386    2.9021    0.0033 H       1  LIG1        0.0638
     19 H          -7.1162    0.3817   -0.0030 H       1  LIG1        0.0836
     20 N          -4.3340    6.1150    0.0106 N.1     1  LIG1       -0.1908
     21 C          -4.9032    5.1185    0.0070 C.1     1  LIG1        0.1013
     22 C          -9.3283    4.3309    0.0108 C.ar    1  LIG1        0.0368
     23 C          -7.9806    4.7312    0.0016 C.ar    1  LIG1        0.0209
     24 C          -7.7192    6.0995   -0.0070 C.ar    1  LIG1       -0.0322
     25 C          -8.8022    6.9774   -0.0055 C.ar    1  LIG1        0.0704
     26 C         -10.1027    6.4750    0.0048 C.ar    1  LIG1        0.0449
     27 N         -10.3558    5.1721    0.0127 N.ar    1  LIG1       -0.2613
     28 H          -6.7203    6.5085   -0.0156 H       1  LIG1        0.0638
     29 H         -10.9505    7.1489    0.0062 H       1  LIG1        0.0842
     30 H          -9.5589    3.2746    0.0169 H       1  LIG1        0.0836
     31 N          -8.4397    9.5459   -0.0251 N.1     1  LIG1       -0.1908
     32 C          -8.5916    8.4091   -0.0160 C.1     1  LIG1        0.1007
@<TRIPOS>BOND
     1    31    32    3
     2    32    25    1
     3    28    24    1
     4     9     1    1
     5     1     6   ar
     6     1     2   ar
     7    24    25   ar
     8    24    23   ar
     9     6     5   ar
    10     8     2    1
    11    25    26   ar
    12     2     3   ar
    13    19    12    1
    14     5    13    1
    15     5     4   ar
    16    12    17   ar
    17    12    13   ar
    18    17    16   ar
    19    13    14   ar
    20     3     4   ar
    21     3     7    1
    22    16    23    1
    23    16    15   ar
    24    23    22   ar
    25    14    15   ar
    26    14    18    1
    27     4    11    1
    28    15    21    1
    29    26    29    1
    30    26    27   ar
    31    21    20    3
    32    11    10    3
    33    22    27   ar
    34    22    30    1
