@<TRIPOS>MOLECULE
mol_data/opt/m06hf/geoms/mol2/6ad6ad-6ad-6ad.out
 42 45 0 0 0
SMALL
GASTEIGER

@<TRIPOS>ATOM
      1 C          -4.2061   -2.0322    0.9270 C.ar    1  LIG1        0.0283
      2 C          -2.9214   -2.1830    0.4073 C.ar    1  LIG1       -0.0423
      3 C          -2.3807   -1.1255   -0.3049 C.ar    1  LIG1       -0.0408
      4 C          -3.1330    0.0419   -0.4521 C.ar    1  LIG1        0.0777
      5 C          -4.4046    0.1181    0.1366 C.ar    1  LIG1        0.0898
      6 N          -4.9185   -0.9193    0.7958 N.ar    1  LIG1       -0.2536
      7 H          -1.3987   -1.1857   -0.7547 H       1  LIG1        0.0631
      8 H          -2.3750   -3.1041    0.5488 H       1  LIG1        0.0633
      9 H          -4.6809   -2.8382    1.4723 H       1  LIG1        0.0830
     10 N          -2.1145    1.9570   -1.8743 N.1     1  LIG1       -0.1908
     11 C          -2.5820    1.1204   -1.2434 C.1     1  LIG1        0.1013
     12 C          -4.8167    2.6343    0.0481 C.ar    1  LIG1        0.0375
     13 C          -5.2885    1.3182    0.0642 C.ar    1  LIG1        0.0209
     14 C          -6.6662    1.1315    0.0990 C.ar    1  LIG1       -0.0316
     15 C          -7.5038    2.2419    0.0658 C.ar    1  LIG1        0.0783
     16 C          -6.9396    3.5275   -0.0011 C.ar    1  LIG1        0.0898
     17 N          -5.6196    3.6908    0.0133 N.ar    1  LIG1       -0.2530
     18 H          -7.0752    0.1324    0.1729 H       1  LIG1        0.0638
     19 H          -3.7569    2.8518    0.0797 H       1  LIG1        0.0836
     20 N         -10.0610    1.8328    0.2118 N.1     1  LIG1       -0.1908
     21 C          -8.9322    2.0289    0.1486 C.1     1  LIG1        0.1013
     22 C          -7.1672    5.9444    0.5076 C.ar    1  LIG1        0.0375
     23 C          -7.7358    4.7873   -0.0419 C.ar    1  LIG1        0.0209
     24 C          -8.9862    4.9075   -0.6343 C.ar    1  LIG1       -0.0316
     25 C          -9.6246    6.1488   -0.6123 C.ar    1  LIG1        0.0783
     26 C          -9.0039    7.2371    0.0180 C.ar    1  LIG1        0.0898
     27 N          -7.7835    7.1153    0.5425 N.ar    1  LIG1       -0.2530
     28 H          -9.4722    4.0788   -1.1308 H       1  LIG1        0.0638
     29 H          -6.1718    5.8964    0.9303 H       1  LIG1        0.0836
     30 N         -11.8958    6.3424   -1.8502 N.1     1  LIG1       -0.1908
     31 C         -10.8931    6.2761   -1.2961 C.1     1  LIG1        0.1013
     32 C         -10.9811    8.8084    0.3060 C.ar    1  LIG1        0.0368
     33 C          -9.6108    8.5937    0.1289 C.ar    1  LIG1        0.0209
     34 C          -8.7656    9.7007    0.1221 C.ar    1  LIG1       -0.0322
     35 C          -9.3340   10.9615    0.2524 C.ar    1  LIG1        0.0704
     36 C         -10.7195   11.0747    0.4054 C.ar    1  LIG1        0.0449
     37 N         -11.5190   10.0189    0.4410 N.ar    1  LIG1       -0.2613
     38 H          -7.6960    9.5702    0.0236 H       1  LIG1        0.0638
     39 H         -11.1777   12.0508    0.5099 H       1  LIG1        0.0842
     40 H         -11.6721    7.9765    0.3606 H       1  LIG1        0.0836
     41 N          -7.8631   13.0980    0.2232 N.1     1  LIG1       -0.1908
     42 C          -8.5113   12.1519    0.2371 C.1     1  LIG1        0.1007
@<TRIPOS>BOND
     1    10    11    3
     2    30    31    3
     3    31    25    1
     4    11     4    1
     5    28    24    1
     6     7     3    1
     7    24    25   ar
     8    24    23   ar
     9    25    26   ar
    10     4     3   ar
    11     4     5   ar
    12     3     2   ar
    13    23    16    1
    14    23    22   ar
    15    16    17   ar
    16    16    15   ar
    17    17    12   ar
    18    26    33    1
    19    26    27   ar
    20    38    34    1
    21    12    13   ar
    22    12    19    1
    23    13    14   ar
    24    13     5    1
    25    15    14   ar
    26    15    21    1
    27    14    18    1
    28    34    33   ar
    29    34    35   ar
    30    33    32   ar
    31     5     6   ar
    32    21    20    3
    33    41    42    3
    34    42    35    1
    35    35    36   ar
    36    32    40    1
    37    32    37   ar
    38    36    37   ar
    39    36    39    1
    40     2     8    1
    41     2     1   ar
    42    22    27   ar
    43    22    29    1
    44     6     1   ar
    45     1     9    1
