@<TRIPOS>MOLECULE
mol_data/opt/m06hf/geoms/mol2/6ad6ad6ad-6ad.out
 42 45 0 0 0
SMALL
GASTEIGER

@<TRIPOS>ATOM
      1 C          -4.7182   -2.2004   -0.0007 C.ar    1  LIG1        0.0283
      2 C          -3.3473   -2.4505   -0.0006 C.ar    1  LIG1       -0.0423
      3 C          -2.4980   -1.3591   -0.0003 C.ar    1  LIG1       -0.0408
      4 C          -3.0418   -0.0706   -0.0001 C.ar    1  LIG1        0.0777
      5 C          -4.4368    0.0928   -0.0003 C.ar    1  LIG1        0.0898
      6 N          -5.2316   -0.9787   -0.0006 N.ar    1  LIG1       -0.2536
      7 H          -1.4224   -1.4771   -0.0001 H       1  LIG1        0.0631
      8 H          -2.9688   -3.4623   -0.0007 H       1  LIG1        0.0633
      9 H          -5.4304   -3.0161   -0.0009 H       1  LIG1        0.0830
     10 N          -1.2998    1.8496    0.0006 N.1     1  LIG1       -0.1908
     11 C          -2.0972    1.0242    0.0003 C.1     1  LIG1        0.1013
     12 C          -6.5741    1.3596    0.0003 C.ar    1  LIG1        0.0375
     13 C          -5.1692    1.4010   -0.0002 C.ar    1  LIG1        0.0209
     14 C          -4.5918    2.6636   -0.0007 C.ar    1  LIG1       -0.0316
     15 C          -5.4097    3.7990   -0.0006 C.ar    1  LIG1        0.0783
     16 C          -6.8046    3.6590   -0.0000 C.ar    1  LIG1        0.0898
     17 N          -7.3395    2.4355    0.0004 N.ar    1  LIG1       -0.2530
     18 H          -3.5233    2.8186   -0.0012 H       1  LIG1        0.0638
     19 H          -7.0749    0.4018    0.0006 H       1  LIG1        0.0836
     20 N          -4.1296    6.0538   -0.0018 N.1     1  LIG1       -0.1908
     21 C          -4.7248    5.0729   -0.0013 C.1     1  LIG1        0.1013
     22 C          -7.5297    6.1387    0.0004 C.ar    1  LIG1        0.0375
     23 C          -7.8115    4.7675    0.0002 C.ar    1  LIG1        0.0209
     24 C          -9.1582    4.4146    0.0001 C.ar    1  LIG1       -0.0316
     25 C         -10.1431    5.3979    0.0003 C.ar    1  LIG1        0.0783
     26 C          -9.7674    6.7545    0.0005 C.ar    1  LIG1        0.0898
     27 N          -8.4743    7.0698    0.0006 N.ar    1  LIG1       -0.2530
     28 H          -9.4356    3.3695   -0.0001 H       1  LIG1        0.0638
     29 H          -6.5178    6.5162    0.0005 H       1  LIG1        0.0836
     30 N         -12.5638    4.4675    0.0000 N.1     1  LIG1       -0.1908
     31 C         -11.5083    4.9188    0.0001 C.1     1  LIG1        0.1013
     32 C         -12.0901    7.8627    0.0010 C.ar    1  LIG1        0.0368
     33 C         -10.6915    7.9352    0.0007 C.ar    1  LIG1        0.0209
     34 C         -10.1125    9.2063    0.0006 C.ar    1  LIG1       -0.0322
     35 C         -10.9441   10.3179    0.0008 C.ar    1  LIG1        0.0704
     36 C         -12.3305   10.1367    0.0011 C.ar    1  LIG1        0.0449
     37 N         -12.8831    8.9344    0.0012 N.ar    1  LIG1       -0.2613
     38 H          -9.0365    9.3095    0.0004 H       1  LIG1        0.0638
     39 H         -12.9946   10.9924    0.0012 H       1  LIG1        0.0842
     40 H         -12.6093    6.9163    0.0011 H       1  LIG1        0.0836
     41 N          -9.9689   12.7217    0.0006 N.1     1  LIG1       -0.1908
     42 C         -10.3946   11.6568    0.0007 C.1     1  LIG1        0.1007
@<TRIPOS>BOND
     1    20    21    3
     2    21    15    1
     3    18    14    1
     4     9     1    1
     5    14    15   ar
     6    14    13   ar
     7     1     6   ar
     8     1     2   ar
     9     8     2    1
    10    15    16   ar
    11     6     5   ar
    12     2     3   ar
    13     5    13    1
    14     5     4   ar
    15     3     4   ar
    16     3     7    1
    17    13    12   ar
    18     4    11    1
    19    28    24    1
    20    16    23    1
    21    16    17   ar
    22    30    31    3
    23    24    23   ar
    24    24    25   ar
    25    31    25    1
    26    23    22   ar
    27    12    17   ar
    28    12    19    1
    29    25    26   ar
    30    11    10    3
    31    22    29    1
    32    22    27   ar
    33    38    34    1
    34    26    27   ar
    35    26    33    1
    36    34    33   ar
    37    34    35   ar
    38    41    42    3
    39    33    32   ar
    40    42    35    1
    41    35    36   ar
    42    32    40    1
    43    32    37   ar
    44    36    37   ar
    45    36    39    1
