@<TRIPOS>MOLECULE
mol_data/opt/m06hf/geoms/mol2/6ad6ad-6ad-6ad-.out
 42 45 0 0 0
SMALL
GASTEIGER

@<TRIPOS>ATOM
      1 C          -4.3030   -2.1906   -0.0002 C.ar    1  LIG1        0.0283
      2 C          -2.9109   -2.2559   -0.0004 C.ar    1  LIG1       -0.0423
      3 C          -2.2160   -1.0600   -0.0006 C.ar    1  LIG1       -0.0408
      4 C          -2.9254    0.1452   -0.0006 C.ar    1  LIG1        0.0777
      5 C          -4.3307    0.1203   -0.0003 C.ar    1  LIG1        0.0898
      6 N          -4.9737   -1.0476   -0.0001 N.ar    1  LIG1       -0.2536
      7 H          -1.1345   -1.0323   -0.0009 H       1  LIG1        0.0631
      8 H          -2.4002   -3.2077   -0.0004 H       1  LIG1        0.0633
      9 H          -4.9007   -3.0935   -0.0000 H       1  LIG1        0.0830
     10 N          -1.4444    2.2734   -0.0012 N.1     1  LIG1       -0.1908
     11 C          -2.1315    1.3538   -0.0009 C.1     1  LIG1        0.1013
     12 C          -4.8327    2.6563    0.0001 C.ar    1  LIG1        0.0375
     13 C          -5.2370    1.3159   -0.0002 C.ar    1  LIG1        0.0209
     14 C          -6.6100    1.0853   -0.0004 C.ar    1  LIG1       -0.0316
     15 C          -7.5003    2.1547   -0.0003 C.ar    1  LIG1        0.0783
     16 C          -7.0030    3.4706    0.0000 C.ar    1  LIG1        0.0898
     17 N          -5.6875    3.6709    0.0002 N.ar    1  LIG1       -0.2530
     18 H          -6.9818    0.0701   -0.0007 H       1  LIG1        0.0638
     19 H          -3.7914    2.9409    0.0004 H       1  LIG1        0.0836
     20 N         -10.0058    1.4867   -0.0009 N.1     1  LIG1       -0.1908
     21 C          -8.9062    1.8148   -0.0006 C.1     1  LIG1        0.1013
     22 C          -7.1427    5.9510    0.0003 C.ar    1  LIG1        0.0375
     23 C          -7.8229    4.7222    0.0002 C.ar    1  LIG1        0.0209
     24 C          -9.2100    4.7870    0.0002 C.ar    1  LIG1       -0.0316
     25 C          -9.8439    6.0334    0.0004 C.ar    1  LIG1        0.0783
     26 C          -9.0818    7.2116    0.0005 C.ar    1  LIG1        0.0898
     27 N          -7.7489    7.1244    0.0005 N.ar    1  LIG1       -0.2530
     28 H          -9.8346    3.9059    0.0001 H       1  LIG1        0.0638
     29 H          -6.0616    5.9589    0.0003 H       1  LIG1        0.0836
     30 N         -12.4347    5.9211    0.0007 N.1     1  LIG1       -0.1908
     31 C         -11.2900    6.0033    0.0006 C.1     1  LIG1        0.1013
     32 C          -8.6710    9.6562    0.0015 C.ar    1  LIG1        0.0368
     33 C          -9.6129    8.6127    0.0007 C.ar    1  LIG1        0.0209
     34 C         -10.9611    8.9658    0.0002 C.ar    1  LIG1       -0.0322
     35 C         -11.2860   10.3212    0.0004 C.ar    1  LIG1        0.0704
     36 C         -10.2724   11.2786    0.0013 C.ar    1  LIG1        0.0449
     37 N          -8.9873   10.9460    0.0018 N.ar    1  LIG1       -0.2613
     38 H         -11.7602    8.2402   -0.0005 H       1  LIG1        0.0638
     39 H         -10.5158   12.3337    0.0015 H       1  LIG1        0.0842
     40 H          -7.6186    9.4086    0.0020 H       1  LIG1        0.0836
     41 N         -13.7601   11.1015   -0.0004 N.1     1  LIG1       -0.1908
     42 C         -12.6685   10.7487   -0.0001 C.1     1  LIG1        0.1007
@<TRIPOS>BOND
     1    10    11    3
     2    11     4    1
     3     7     3    1
     4    20    21    3
     5    18    14    1
     6     3     4   ar
     7     3     2   ar
     8    21    15    1
     9     4     5   ar
    10    38    34    1
    11     8     2    1
    12    14    15   ar
    13    14    13   ar
    14    41    42    3
    15     2     1   ar
    16    15    16   ar
    17     5    13    1
    18     5     6   ar
    19    13    12   ar
    20     1     6   ar
    21     1     9    1
    22    42    35    1
    23    16    23    1
    24    16    17   ar
    25    28    24    1
    26    12    17   ar
    27    12    19    1
    28    34    35   ar
    29    34    33   ar
    30    23    24   ar
    31    23    22   ar
    32    24    25   ar
    33    29    22    1
    34    22    27   ar
    35    25    26   ar
    36    25    31    1
    37    35    36   ar
    38    27    26   ar
    39    26    33    1
    40    31    30    3
    41    33    32   ar
    42    36    39    1
    43    36    37   ar
    44    32    37   ar
    45    32    40    1
