@<TRIPOS>MOLECULE
mol_data/opt/m06hf/geoms/mol2/6ad6ad6ad6ad-.out
 42 45 0 0 0
SMALL
GASTEIGER

@<TRIPOS>ATOM
      1 C          -4.4526   -2.0530    0.9245 C.ar    1  LIG1        0.0283
      2 C          -3.2241   -2.3476    0.3357 C.ar    1  LIG1       -0.0423
      3 C          -2.6113   -1.3606   -0.4188 C.ar    1  LIG1       -0.0408
      4 C          -3.2402   -0.1201   -0.5395 C.ar    1  LIG1        0.0777
      5 C          -4.4617    0.0990    0.1175 C.ar    1  LIG1        0.0898
      6 N          -5.0469   -0.8698    0.8194 N.ar    1  LIG1       -0.2536
      7 H          -1.6686   -1.5321   -0.9207 H       1  LIG1        0.0631
      8 H          -2.7750   -3.3223    0.4581 H       1  LIG1        0.0633
      9 H          -4.9797   -2.7992    1.5063 H       1  LIG1        0.0830
     10 N          -2.1165    1.6756   -2.0365 N.1     1  LIG1       -0.1908
     11 C          -2.6250    0.8902   -1.3722 C.1     1  LIG1        0.1013
     12 C          -6.6112    1.3398    0.1386 C.ar    1  LIG1        0.0375
     13 C          -5.2123    1.3876    0.0711 C.ar    1  LIG1        0.0209
     14 C          -4.6159    2.6395    0.0018 C.ar    1  LIG1       -0.0316
     15 C          -5.4311    3.7728    0.0019 C.ar    1  LIG1        0.0783
     16 C          -6.8228    3.6271    0.0878 C.ar    1  LIG1        0.0898
     17 N          -7.3811    2.4168    0.1401 N.ar    1  LIG1       -0.2530
     18 H          -3.5428    2.7659   -0.0499 H       1  LIG1        0.0638
     19 H          -7.1067    0.3794    0.2003 H       1  LIG1        0.0836
     20 N          -4.2878    6.0926   -0.1926 N.1     1  LIG1       -0.1908
     21 C          -4.8036    5.0712   -0.1105 C.1     1  LIG1        0.1013
     22 C          -9.0474    4.5787   -0.4627 C.ar    1  LIG1        0.0375
     23 C          -7.7794    4.7701    0.1016 C.ar    1  LIG1        0.0209
     24 C          -7.5198    5.9996    0.6931 C.ar    1  LIG1       -0.0316
     25 C          -8.5074    6.9849    0.6568 C.ar    1  LIG1        0.0783
     26 C          -9.7243    6.7237    0.0093 C.ar    1  LIG1        0.0898
     27 N          -9.9741    5.5228   -0.5144 N.ar    1  LIG1       -0.2530
     28 H          -6.5888    6.2100    1.2016 H       1  LIG1        0.0638
     29 H          -9.3017    3.6144   -0.8839 H       1  LIG1        0.0836
     30 N          -8.0291    9.2042    1.9115 N.1     1  LIG1       -0.1908
     31 C          -8.2557    8.2307    1.3479 C.1     1  LIG1        0.1013
     32 C         -10.6024    9.0866   -0.3033 C.ar    1  LIG1        0.0368
     33 C         -10.8262    7.7186   -0.1216 C.ar    1  LIG1        0.0209
     34 C         -12.1408    7.2589   -0.1303 C.ar    1  LIG1       -0.0322
     35 C         -13.1606    8.1909   -0.2797 C.ar    1  LIG1        0.0704
     36 C         -12.8354    9.5425   -0.4342 C.ar    1  LIG1        0.0449
     37 N         -11.5831    9.9741   -0.4557 N.ar    1  LIG1       -0.2613
     38 H         -12.3518    6.2024   -0.0294 H       1  LIG1        0.0638
     39 H         -13.6191   10.2808   -0.5521 H       1  LIG1        0.0842
     40 H          -9.5965    9.4845   -0.3481 H       1  LIG1        0.0836
     41 N         -15.6499    7.4622   -0.2825 N.1     1  LIG1       -0.1908
     42 C         -14.5482    7.7808   -0.2818 C.1     1  LIG1        0.1007
@<TRIPOS>BOND
     1    10    11    3
     2    11     4    1
     3     7     3    1
     4    29    22    1
     5    39    36    1
     6     4     3   ar
     7     4     5   ar
     8    27    22   ar
     9    27    26   ar
    10    22    23   ar
    11    37    36   ar
    12    37    32   ar
    13    36    35   ar
    14     3     2   ar
    15    40    32    1
    16    32    33   ar
    17    41    42    3
    18    42    35    1
    19    35    34   ar
    20    20    21    3
    21    34    33   ar
    22    34    38    1
    23    33    26    1
    24    21    15    1
    25    18    14    1
    26    14    15   ar
    27    14    13   ar
    28    15    16   ar
    29    26    25   ar
    30    13     5    1
    31    13    12   ar
    32    16    23    1
    33    16    17   ar
    34    23    24   ar
    35     5     6   ar
    36    12    17   ar
    37    12    19    1
    38     2     8    1
    39     2     1   ar
    40    25    24   ar
    41    25    31    1
    42    24    28    1
    43     6     1   ar
    44     1     9    1
    45    31    30    3
