@<TRIPOS>MOLECULE
mol_data/opt/m06hf/geoms/mol2/6ad6ad.out
 22 23 0 0 0
SMALL
GASTEIGER

@<TRIPOS>ATOM
      1 C          -4.5890   -2.0813   -0.0004 C.ar    1  LIG1        0.0283
      2 C          -3.2000   -2.1918   -0.0003 C.ar    1  LIG1       -0.0423
      3 C          -2.4677   -1.0186   -0.0001 C.ar    1  LIG1       -0.0408
      4 C          -3.1394    0.2081   -0.0000 C.ar    1  LIG1        0.0777
      5 C          -4.5448    0.2312   -0.0002 C.ar    1  LIG1        0.0898
      6 N          -5.2233   -0.9180   -0.0004 N.ar    1  LIG1       -0.2536
      7 H          -1.3860   -1.0257    0.0000 H       1  LIG1        0.0631
      8 H          -2.7189   -3.1590   -0.0004 H       1  LIG1        0.0633
      9 H          -5.2166   -2.9638   -0.0006 H       1  LIG1        0.0830
     10 N          -1.5855    2.2842    0.0005 N.1     1  LIG1       -0.1908
     11 C          -2.3037    1.3889    0.0003 C.1     1  LIG1        0.1013
     12 C          -6.8003    1.2667    0.0003 C.ar    1  LIG1        0.0368
     13 C          -5.4079    1.4596   -0.0002 C.ar    1  LIG1        0.0209
     14 C          -4.9453    2.7732   -0.0007 C.ar    1  LIG1       -0.0322
     15 C          -5.8846    3.8040   -0.0006 C.ar    1  LIG1        0.0704
     16 C          -7.2457    3.5028   -0.0001 C.ar    1  LIG1        0.0449
     17 N          -7.6904    2.2522    0.0004 N.ar    1  LIG1       -0.2613
     18 H          -3.8969    3.0292   -0.0012 H       1  LIG1        0.0638
     19 H          -7.9830    4.2959   -0.0000 H       1  LIG1        0.0842
     20 H          -7.1881    0.2575    0.0007 H       1  LIG1        0.0836
     21 N          -5.1362    6.2878   -0.0018 N.1     1  LIG1       -0.1908
     22 C          -5.4602    5.1876   -0.0012 C.1     1  LIG1        0.1007
@<TRIPOS>BOND
     1    21    22    3
     2    22    15    1
     3    18    14    1
     4    14    15   ar
     5    14    13   ar
     6    15    16   ar
     7     9     1    1
     8     1     6   ar
     9     1     2   ar
    10     6     5   ar
    11     8     2    1
    12     2     3   ar
    13     5    13    1
    14     5     4   ar
    15    13    12   ar
    16     3     4   ar
    17     3     7    1
    18    16    19    1
    19    16    17   ar
    20     4    11    1
    21    11    10    3
    22    12    17   ar
    23    12    20    1
