@<TRIPOS>MOLECULE
mol_data/opt/m06hf/geoms/mol2/6ad6ad6ad6ad.out
 42 45 0 0 0
SMALL
GASTEIGER

@<TRIPOS>ATOM
      1 C          -4.4303   -1.9517   -1.3643 C.ar    1  LIG1        0.0283
      2 C          -3.2803   -2.3654   -0.6945 C.ar    1  LIG1       -0.0423
      3 C          -2.7321   -1.5091    0.2463 C.ar    1  LIG1       -0.0408
      4 C          -3.3425   -0.2727    0.4650 C.ar    1  LIG1        0.0777
      5 C          -4.4810    0.0734   -0.2793 C.ar    1  LIG1        0.0898
      6 N          -5.0074   -0.7722   -1.1635 N.ar    1  LIG1       -0.2536
      7 H          -1.8533   -1.7788    0.8164 H       1  LIG1        0.0631
      8 H          -2.8420   -3.3315   -0.8988 H       1  LIG1        0.0633
      9 H          -4.9061   -2.5947   -2.0945 H       1  LIG1        0.0830
     10 N          -2.3414    1.2718    2.2925 N.1     1  LIG1       -0.1908
     11 C          -2.7966    0.5982    1.4828 C.1     1  LIG1        0.1013
     12 C          -6.5923    1.3764   -0.3330 C.ar    1  LIG1        0.0375
     13 C          -5.2051    1.3697   -0.1344 C.ar    1  LIG1        0.0209
     14 C          -4.5911    2.5820    0.1503 C.ar    1  LIG1       -0.0316
     15 C          -5.3789    3.7320    0.2255 C.ar    1  LIG1        0.0783
     16 C          -6.7600    3.6432    0.0009 C.ar    1  LIG1        0.0898
     17 N          -7.3365    2.4686   -0.2598 N.ar    1  LIG1       -0.2530
     18 H          -3.5248    2.6653    0.3125 H       1  LIG1        0.0638
     19 H          -7.0987    0.4485   -0.5654 H       1  LIG1        0.0836
     20 N          -4.2093    5.9723    0.8089 N.1     1  LIG1       -0.1908
     21 C          -4.7373    4.9854    0.5561 C.1     1  LIG1        0.1013
     22 C          -8.9962    4.5840    0.5141 C.ar    1  LIG1        0.0375
     23 C          -7.6903    4.8065    0.0571 C.ar    1  LIG1        0.0209
     24 C          -7.3598    6.0943   -0.3441 C.ar    1  LIG1       -0.0316
     25 C          -8.3353    7.0894   -0.2700 C.ar    1  LIG1        0.0783
     26 C          -9.6197    6.7714    0.1942 C.ar    1  LIG1        0.0898
     27 N          -9.9175    5.5319    0.5870 N.ar    1  LIG1       -0.2530
     28 H          -6.3751    6.3491   -0.7117 H       1  LIG1        0.0638
     29 H          -9.2878    3.5888    0.8253 H       1  LIG1        0.0836
     30 N          -7.6737    9.4965   -0.9734 N.1     1  LIG1       -0.1908
     31 C          -7.9764    8.4369   -0.6547 C.1     1  LIG1        0.1013
     32 C         -11.6208    7.6254    1.3815 C.ar    1  LIG1        0.0368
     33 C         -10.7257    7.7638    0.3127 C.ar    1  LIG1        0.0209
     34 C         -10.9443    8.7902   -0.5997 C.ar    1  LIG1       -0.0322
     35 C         -12.0353    9.6306   -0.3847 C.ar    1  LIG1        0.0704
     36 C         -12.8581    9.4222    0.7234 C.ar    1  LIG1        0.0449
     37 N         -12.6520    8.4362    1.5885 N.ar    1  LIG1       -0.2613
     38 H         -10.3109    8.9400   -1.4634 H       1  LIG1        0.0638
     39 H         -13.7056   10.0722    0.9019 H       1  LIG1        0.0842
     40 H         -11.4791    6.8166    2.0874 H       1  LIG1        0.0836
     41 N         -12.5876   11.5558   -2.0324 N.1     1  LIG1       -0.1908
     42 C         -12.3360   10.7057   -1.3049 C.1     1  LIG1        0.1007
@<TRIPOS>BOND
     1     9     1    1
     2    41    42    3
     3    38    34    1
     4     1     6   ar
     5     1     2   ar
     6    42    35    1
     7     6     5   ar
     8    30    31    3
     9     8     2    1
    10    28    24    1
    11     2     3   ar
    12    31    25    1
    13    34    35   ar
    14    34    33   ar
    15    19    12    1
    16    35    36   ar
    17    24    25   ar
    18    24    23   ar
    19    12    17   ar
    20    12    13   ar
    21     5    13    1
    22     5     4   ar
    23    25    26   ar
    24    17    16   ar
    25    13    14   ar
    26    16    23    1
    27    16    15   ar
    28    23    22   ar
    29    14    15   ar
    30    14    18    1
    31    26    33    1
    32    26    27   ar
    33    15    21    1
    34     3     4   ar
    35     3     7    1
    36    33    32   ar
    37     4    11    1
    38    22    27   ar
    39    22    29    1
    40    21    20    3
    41    36    39    1
    42    36    37   ar
    43    32    37   ar
    44    32    40    1
    45    11    10    3
