@<TRIPOS>MOLECULE
mol_data/opt/m06hf/geoms/mol2/6ad6ad-4ad6ad.out
 43 46 0 0 0
SMALL
GASTEIGER

@<TRIPOS>ATOM
      1 C          -4.2080   -2.1197    0.7077 C.ar    1  LIG1        0.0283
      2 C          -2.9230   -2.2301    0.1786 C.ar    1  LIG1       -0.0423
      3 C          -2.3775   -1.1179   -0.4405 C.ar    1  LIG1       -0.0408
      4 C          -3.1284    0.0584   -0.4919 C.ar    1  LIG1        0.0777
      5 C          -4.4017    0.0875    0.0969 C.ar    1  LIG1        0.0898
      6 N          -4.9193   -0.9989    0.6681 N.ar    1  LIG1       -0.2536
      7 H          -1.3951   -1.1426   -0.8928 H       1  LIG1        0.0631
      8 H          -2.3798   -3.1619    0.2429 H       1  LIG1        0.0633
      9 H          -4.6846   -2.9675    1.1831 H       1  LIG1        0.0830
     10 N          -2.1212    2.0811   -1.7657 N.1     1  LIG1       -0.1908
     11 C          -2.5811    1.1965   -1.1976 C.1     1  LIG1        0.1013
     12 C          -4.8064    2.6008    0.2174 C.ar    1  LIG1        0.0375
     13 C          -5.2823    1.2913    0.1056 C.ar    1  LIG1        0.0209
     14 C          -6.6604    1.1098    0.0770 C.ar    1  LIG1       -0.0316
     15 C          -7.4919    2.2253    0.0935 C.ar    1  LIG1        0.0783
     16 C          -6.9221    3.5095    0.1420 C.ar    1  LIG1        0.0883
     17 N          -5.6030    3.6625    0.2328 N.ar    1  LIG1       -0.2530
     18 H          -7.0754    0.1105    0.0573 H       1  LIG1        0.0638
     19 H          -3.7476    2.8056    0.3121 H       1  LIG1        0.0836
     20 N         -10.0507    1.8002    0.1187 N.1     1  LIG1       -0.1908
     21 C          -8.9228    2.0102    0.1085 C.1     1  LIG1        0.1013
     22 C          -7.2180    5.8698    0.8435 C.ar    1  LIG1       -0.0519
     23 C          -7.9110    7.0720    0.8620 C.ar    1  LIG1       -0.0521
     24 C          -7.7183    4.7732    0.1359 C.ar    1  LIG1        0.0029
     25 C          -9.1089    7.2190    0.1601 C.ar    1  LIG1        0.0010
     26 H          -7.5329    7.9059    1.4393 H       1  LIG1        0.0624
     27 C          -8.9040    4.9052   -0.5831 C.ar    1  LIG1       -0.0345
     28 C          -9.5867    6.1217   -0.5688 C.ar    1  LIG1        0.0601
     29 H          -9.3023    4.0936   -1.1766 H       1  LIG1        0.0637
     30 H          -6.2827    5.7620    1.3758 H       1  LIG1        0.0624
     31 N         -11.7485    6.3298   -1.9941 N.1     1  LIG1       -0.1908
     32 C         -10.7940    6.2437   -1.3635 C.1     1  LIG1        0.0998
     33 C         -11.1911    8.5943    0.5154 C.ar    1  LIG1        0.0354
     34 C          -9.8322    8.5211    0.1826 C.ar    1  LIG1        0.0027
     35 C          -9.1663    9.7076   -0.1048 C.ar    1  LIG1       -0.0337
     36 C          -9.8862   10.8989   -0.0506 C.ar    1  LIG1        0.0704
     37 C         -11.2398   10.8647    0.2909 C.ar    1  LIG1        0.0449
     38 N         -11.8737    9.7330    0.5709 N.ar    1  LIG1       -0.2614
     39 H          -8.1198    9.7104   -0.3819 H       1  LIG1        0.0637
     40 H         -11.8139   11.7818    0.3376 H       1  LIG1        0.0842
     41 H         -11.7406    7.6917    0.7556 H       1  LIG1        0.0836
     42 N          -8.7353   13.1615   -0.5828 N.1     1  LIG1       -0.1908
     43 C          -9.2464   12.1618   -0.3484 C.1     1  LIG1        0.1007
@<TRIPOS>BOND
     1    31    32    3
     2    10    11    3
     3    32    28    1
     4    11     4    1
     5    29    27    1
     6     7     3    1
     7    27    28   ar
     8    27    24   ar
     9    42    43    3
    10    28    25   ar
    11     4     3   ar
    12     4     5   ar
    13     3     2   ar
    14    39    35    1
    15    43    36    1
    16    35    36   ar
    17    35    34   ar
    18    36    37   ar
    19    18    14    1
    20    14    15   ar
    21    14    13   ar
    22    15    21    1
    23    15    16   ar
    24     5    13    1
    25     5     6   ar
    26    13    12   ar
    27    21    20    3
    28    24    16    1
    29    24    22   ar
    30    16    17   ar
    31    25    34    1
    32    25    23   ar
    33     2     8    1
    34     2     1   ar
    35    34    33   ar
    36    12    17   ar
    37    12    19    1
    38    37    40    1
    39    37    38   ar
    40    33    38   ar
    41    33    41    1
    42     6     1   ar
    43     1     9    1
    44    22    23   ar
    45    22    30    1
    46    23    26    1
