@<TRIPOS>MOLECULE
mol_data/opt/m06hf/geoms/mol2/6ad6ad-6ad6ad-.out
 42 45 0 0 0
SMALL
GASTEIGER

@<TRIPOS>ATOM
      1 C          -4.4779   -2.2154   -0.0001 C.ar    1  LIG1        0.0283
      2 C          -3.0900   -2.3378   -0.0004 C.ar    1  LIG1       -0.0423
      3 C          -2.3463   -1.1716   -0.0007 C.ar    1  LIG1       -0.0408
      4 C          -3.0056    0.0617   -0.0006 C.ar    1  LIG1        0.0777
      5 C          -4.4104    0.0946   -0.0002 C.ar    1  LIG1        0.0898
      6 N          -5.1014   -1.0458   -0.0000 N.ar    1  LIG1       -0.2536
      7 H          -1.2646   -1.1892   -0.0009 H       1  LIG1        0.0631
      8 H          -2.6183   -3.3095   -0.0004 H       1  LIG1        0.0633
      9 H          -5.1125   -3.0931    0.0002 H       1  LIG1        0.0830
     10 N          -1.4373    2.1266   -0.0013 N.1     1  LIG1       -0.1908
     11 C          -2.1622    1.2367   -0.0010 C.1     1  LIG1        0.1013
     12 C          -4.8072    2.6483    0.0002 C.ar    1  LIG1        0.0375
     13 C          -5.2672    1.3259   -0.0001 C.ar    1  LIG1        0.0209
     14 C          -6.6482    1.1512   -0.0003 C.ar    1  LIG1       -0.0316
     15 C          -7.4950    2.2564   -0.0003 C.ar    1  LIG1        0.0783
     16 C          -6.9433    3.5495    0.0001 C.ar    1  LIG1        0.0898
     17 N          -5.6204    3.6959    0.0003 N.ar    1  LIG1       -0.2530
     18 H          -7.0577    0.1503   -0.0006 H       1  LIG1        0.0638
     19 H          -3.7552    2.8908    0.0004 H       1  LIG1        0.0836
     20 N         -10.0241    1.6841   -0.0009 N.1     1  LIG1       -0.1908
     21 C          -8.9137    1.9734   -0.0006 C.1     1  LIG1        0.1013
     22 C          -9.0964    4.9721    0.0004 C.ar    1  LIG1        0.0375
     23 C          -7.7037    4.8397    0.0002 C.ar    1  LIG1        0.0209
     24 C          -6.9697    6.0229    0.0001 C.ar    1  LIG1       -0.0316
     25 C          -7.6213    7.2527    0.0002 C.ar    1  LIG1        0.0783
     26 C          -9.0283    7.2913    0.0005 C.ar    1  LIG1        0.0898
     27 N          -9.7099    6.1478    0.0006 N.ar    1  LIG1       -0.2530
     28 H          -5.8889    5.9769   -0.0001 H       1  LIG1        0.0638
     29 H          -9.7546    4.1155    0.0006 H       1  LIG1        0.0836
     30 N          -6.0304    9.3008   -0.0001 N.1     1  LIG1       -0.1908
     31 C          -6.7658    8.4197    0.0000 C.1     1  LIG1        0.1013
     32 C          -9.4124    9.8369    0.0009 C.ar    1  LIG1        0.0368
     33 C          -9.8880    8.5198    0.0006 C.ar    1  LIG1        0.0209
     34 C         -11.2724    8.3337    0.0006 C.ar    1  LIG1       -0.0322
     35 C         -12.0953    9.4516    0.0008 C.ar    1  LIG1        0.0704
     36 C         -11.5197   10.7256    0.0010 C.ar    1  LIG1        0.0449
     37 N         -10.2087   10.9063    0.0010 N.ar    1  LIG1       -0.2613
     38 H         -11.6801    7.3324    0.0005 H       1  LIG1        0.0638
     39 H         -12.1457   11.6096    0.0011 H       1  LIG1        0.0842
     40 H          -8.3561   10.0596    0.0009 H       1  LIG1        0.0836
     41 N         -14.6794    9.2214    0.0007 N.1     1  LIG1       -0.1908
     42 C         -13.5362    9.3159    0.0007 C.1     1  LIG1        0.1007
@<TRIPOS>BOND
     1    10    11    3
     2    11     4    1
     3     7     3    1
     4    20    21    3
     5     3     4   ar
     6     3     2   ar
     7     4     5   ar
     8    18    14    1
     9    21    15    1
    10     8     2    1
    11     2     1   ar
    12    14    15   ar
    13    14    13   ar
    14    15    16   ar
    15     5    13    1
    16     5     6   ar
    17    13    12   ar
    18    30    31    3
    19    28    24    1
    20     1     6   ar
    21     1     9    1
    22    31    25    1
    23    16    23    1
    24    16    17   ar
    25    24    23   ar
    26    24    25   ar
    27    23    22   ar
    28    12    17   ar
    29    12    19    1
    30    25    26   ar
    31    22    29    1
    32    22    27   ar
    33    38    34    1
    34    26    27   ar
    35    26    33    1
    36    34    33   ar
    37    34    35   ar
    38    33    32   ar
    39    41    42    3
    40    42    35    1
    41    35    36   ar
    42    32    40    1
    43    32    37   ar
    44    36    37   ar
    45    36    39    1
