@<TRIPOS>MOLECULE
mol_data/opt/m06hf/geoms/mol2/6ad6ad6ad-6ad-.out
 42 45 0 0 0
SMALL
GASTEIGER

@<TRIPOS>ATOM
      1 C          -4.1377   -1.9125    1.2036 C.ar    1  LIG1        0.0283
      2 C          -3.0086   -2.2363    0.4529 C.ar    1  LIG1       -0.0423
      3 C          -2.5704   -1.3218   -0.4908 C.ar    1  LIG1       -0.0408
      4 C          -3.2658   -0.1201   -0.6339 C.ar    1  LIG1        0.0777
      5 C          -4.3754    0.1343    0.1868 C.ar    1  LIG1        0.0898
      6 N          -4.7963   -0.7660    1.0732 N.ar    1  LIG1       -0.2536
      7 H          -1.7140   -1.5212   -1.1207 H       1  LIG1        0.0631
      8 H          -2.5019   -3.1787    0.6009 H       1  LIG1        0.0633
      9 H          -4.5275   -2.6028    1.9411 H       1  LIG1        0.0830
     10 N          -2.4680    1.5386   -2.4614 N.1     1  LIG1       -0.1908
     11 C          -2.8353    0.8133   -1.6517 C.1     1  LIG1        0.1013
     12 C          -6.5565    1.3046    0.3836 C.ar    1  LIG1        0.0375
     13 C          -5.1819    1.3877    0.1238 C.ar    1  LIG1        0.0209
     14 C          -4.6536    2.6428   -0.1445 C.ar    1  LIG1       -0.0316
     15 C          -5.5085    3.7471   -0.1424 C.ar    1  LIG1        0.0783
     16 C          -6.8692    3.5686    0.1410 C.ar    1  LIG1        0.0898
     17 N          -7.3643    2.3531    0.3821 N.ar    1  LIG1       -0.2530
     18 H          -3.6027    2.7938   -0.3535 H       1  LIG1        0.0638
     19 H          -6.9983    0.3412    0.6034 H       1  LIG1        0.0836
     20 N          -4.4842    6.0617   -0.7085 N.1     1  LIG1       -0.1908
     21 C          -4.9528    5.0441   -0.4610 C.1     1  LIG1        0.1013
     22 C          -7.5822    5.9696    0.6154 C.ar    1  LIG1        0.0375
     23 C          -7.8679    4.6751    0.1718 C.ar    1  LIG1        0.0209
     24 C          -9.1810    4.3938   -0.1907 C.ar    1  LIG1       -0.0316
     25 C         -10.1261    5.4139   -0.1539 C.ar    1  LIG1        0.0783
     26 C          -9.7347    6.7015    0.2522 C.ar    1  LIG1        0.0898
     27 N          -8.4876    6.9400    0.6490 N.ar    1  LIG1       -0.2530
     28 H          -9.4602    3.3892   -0.4802 H       1  LIG1        0.0638
     29 H          -6.5948    6.2373    0.9684 H       1  LIG1        0.0836
     30 N         -12.5760    4.8251   -0.7708 N.1     1  LIG1       -0.1908
     31 C         -11.4970    5.0995   -0.4933 C.1     1  LIG1        0.1013
     32 C         -10.4575    8.8245    1.3125 C.ar    1  LIG1        0.0368
     33 C         -10.6626    7.8666    0.3110 C.ar    1  LIG1        0.0209
     34 C         -11.6935    8.0762   -0.5989 C.ar    1  LIG1       -0.0322
     35 C         -12.4740    9.2206   -0.4454 C.ar    1  LIG1        0.0704
     36 C         -12.2022   10.1055    0.5991 C.ar    1  LIG1        0.0449
     37 N         -11.2096    9.9088    1.4598 N.ar    1  LIG1       -0.2613
     38 H         -11.8918    7.3956   -1.4160 H       1  LIG1        0.0638
     39 H         -12.8049   10.9953    0.7304 H       1  LIG1        0.0842
     40 H          -9.6428    8.6891    2.0127 H       1  LIG1        0.0836
     41 N         -14.4124    9.7374   -2.0898 N.1     1  LIG1       -0.1908
     42 C         -13.5553    9.5057   -1.3634 C.1     1  LIG1        0.1007
@<TRIPOS>BOND
     1    10    11    3
     2    41    42    3
     3    11     4    1
     4    38    34    1
     5    42    35    1
     6     7     3    1
     7    30    31    3
     8    20    21    3
     9     4     3   ar
    10     4     5   ar
    11    34    35   ar
    12    34    33   ar
    13    31    25    1
    14     3     2   ar
    15    28    24    1
    16    21    15    1
    17    35    36   ar
    18    18    14    1
    19    24    25   ar
    20    24    23   ar
    21    25    26   ar
    22    14    15   ar
    23    14    13   ar
    24    15    16   ar
    25    13     5    1
    26    13    12   ar
    27    16    23    1
    28    16    17   ar
    29    23    22   ar
    30     5     6   ar
    31    26    33    1
    32    26    27   ar
    33    33    32   ar
    34    17    12   ar
    35    12    19    1
    36     2     8    1
    37     2     1   ar
    38    36    39    1
    39    36    37   ar
    40    22    27   ar
    41    22    29    1
    42     6     1   ar
    43     1     9    1
    44    32    37   ar
    45    32    40    1
