@<TRIPOS>MOLECULE
mol_data/opt/m06hf/geoms/mol2/6ae6ae-4ae6ae.out
 47 50 0 0 0
SMALL
GASTEIGER

@<TRIPOS>ATOM
      1 C          -4.3659   -2.0942   -0.8847 C.ar    1  LIG1        0.0283
      2 C          -2.9985   -2.1944   -0.6387 C.ar    1  LIG1       -0.0424
      3 C          -2.3449   -1.0758   -0.1484 C.ar    1  LIG1       -0.0428
      4 C          -3.0633    0.1053    0.0627 C.ar    1  LIG1        0.0507
      5 C          -4.4345    0.1171   -0.2558 C.ar    1  LIG1        0.0878
      6 N          -5.0564   -0.9750   -0.7010 N.ar    1  LIG1       -0.2537
      7 H          -1.2897   -1.0961    0.0883 H       1  LIG1        0.0631
      8 H          -2.4737   -3.1225   -0.8144 H       1  LIG1        0.0633
      9 H          -4.9277   -2.9462   -1.2470 H       1  LIG1        0.0830
     10 C          -2.3770    1.2351    0.6409 C.1     1  LIG1       -0.0675
     11 C          -1.7594    2.1384    1.1375 C.1     1  LIG1       -0.1138
     12 H          -1.2237    2.9466    1.5796 H       1  LIG1        0.1232
     13 C          -4.8644    2.6209   -0.3538 C.ar    1  LIG1        0.0375
     14 C          -5.3044    1.3191   -0.1042 C.ar    1  LIG1        0.0208
     15 C          -6.6376    1.1513    0.2506 C.ar    1  LIG1       -0.0336
     16 C          -7.4721    2.2631    0.3627 C.ar    1  LIG1        0.0512
     17 C          -6.9358    3.5331    0.0737 C.ar    1  LIG1        0.0864
     18 N          -5.6558    3.6824   -0.2663 N.ar    1  LIG1       -0.2531
     19 H          -7.0243    0.1594    0.4435 H       1  LIG1        0.0637
     20 H          -3.8421    2.8111   -0.6523 H       1  LIG1        0.0836
     21 C          -8.8287    2.0622    0.8127 C.1     1  LIG1       -0.0675
     22 C          -9.9443    1.8414    1.2018 C.1     1  LIG1       -0.1138
     23 H         -10.9359    1.6611    1.5482 H       1  LIG1        0.1232
     24 C          -7.0863    5.9659    0.5490 C.ar    1  LIG1       -0.0519
     25 C          -7.7784    7.1675    0.5915 C.ar    1  LIG1       -0.0522
     26 C          -7.7289    4.7979    0.1317 C.ar    1  LIG1        0.0027
     27 C          -9.1172    7.2427    0.1996 C.ar    1  LIG1       -0.0010
     28 H          -7.2848    8.0634    0.9463 H       1  LIG1        0.0624
     29 C          -9.0599    4.8593   -0.2713 C.ar    1  LIG1       -0.0365
     30 C          -9.7549    6.0723   -0.2428 C.ar    1  LIG1        0.0330
     31 H          -9.5700    3.9780   -0.6327 H       1  LIG1        0.0636
     32 H          -6.0447    5.9142    0.8357 H       1  LIG1        0.0624
     33 C         -11.1233    6.0902   -0.7107 C.1     1  LIG1       -0.0690
     34 C         -12.2573    6.0734   -1.1080 C.1     1  LIG1       -0.1139
     35 H         -13.2622    6.0680   -1.4614 H       1  LIG1        0.1232
     36 C         -11.0605    8.7039    0.8680 C.ar    1  LIG1        0.0354
     37 C          -9.8183    8.5567    0.2401 C.ar    1  LIG1        0.0025
     38 C          -9.2370    9.6895   -0.3201 C.ar    1  LIG1       -0.0357
     39 C          -9.9108   10.9087   -0.2372 C.ar    1  LIG1        0.0433
     40 C         -11.1497   10.9380    0.4107 C.ar    1  LIG1        0.0430
     41 N         -11.7090    9.8615    0.9517 N.ar    1  LIG1       -0.2614
     42 H          -8.2831    9.6300   -0.8291 H       1  LIG1        0.0637
     43 H         -11.6940   11.8712    0.4890 H       1  LIG1        0.0842
     44 H         -11.5390    7.8457    1.3235 H       1  LIG1        0.0836
     45 C          -9.3541   12.1115   -0.8058 C.1     1  LIG1       -0.0681
     46 C          -8.8875   13.1125   -1.2782 C.1     1  LIG1       -0.1139
     47 H          -8.4727   13.9997   -1.6971 H       1  LIG1        0.1232
@<TRIPOS>BOND
     1    47    46    1
     2    35    34    1
     3    46    45    3
     4     9     1    1
     5    34    33    3
     6     1     6   ar
     7     1     2   ar
     8    42    38    1
     9     8     2    1
    10    45    39    1
    11    33    30    1
    12     6     5   ar
    13    20    13    1
    14     2     3   ar
    15    31    29    1
    16    13    18   ar
    17    13    14   ar
    18    38    39   ar
    19    38    37   ar
    20    29    30   ar
    21    29    26   ar
    22    18    17   ar
    23     5    14    1
    24     5     4   ar
    25    30    27   ar
    26    39    40   ar
    27     3     4   ar
    28     3     7    1
    29    14    15   ar
    30     4    10    1
    31    17    26    1
    32    17    16   ar
    33    26    24   ar
    34    27    37    1
    35    27    25   ar
    36    37    36   ar
    37    15    16   ar
    38    15    19    1
    39    16    21    1
    40    40    43    1
    41    40    41   ar
    42    24    25   ar
    43    24    32    1
    44    25    28    1
    45    10    11    3
    46    21    22    3
    47    36    41   ar
    48    36    44    1
    49    11    12    1
    50    22    23    1
