@<TRIPOS>MOLECULE
mol_data/opt/m06hf/geoms/mol2/6ae6ae6ae-6ae.out
 46 49 0 0 0
SMALL
GASTEIGER

@<TRIPOS>ATOM
      1 C          -4.5186   -2.1764   -0.3584 C.ar    1  LIG1        0.0283
      2 C          -3.1716   -2.3229   -0.0358 C.ar    1  LIG1       -0.0424
      3 C          -2.4655   -1.1900    0.3347 C.ar    1  LIG1       -0.0428
      4 C          -3.1151    0.0479    0.3577 C.ar    1  LIG1        0.0507
      5 C          -4.4702    0.0961   -0.0169 C.ar    1  LIG1        0.0878
      6 N          -5.1441   -1.0050   -0.3495 N.ar    1  LIG1       -0.2537
      7 H          -1.4232   -1.2419    0.6192 H       1  LIG1        0.0631
      8 H          -2.7012   -3.2954   -0.0651 H       1  LIG1        0.0633
      9 H          -5.1181   -3.0342   -0.6365 H       1  LIG1        0.0830
     10 C          -2.3818    1.2072    0.8053 C.1     1  LIG1       -0.0675
     11 C          -1.7299    2.1384    1.1956 C.1     1  LIG1       -0.1138
     12 H          -1.1638    2.9709    1.5457 H       1  LIG1        0.1232
     13 C          -6.6238    1.3074    0.2796 C.ar    1  LIG1        0.0375
     14 C          -5.2635    1.3582   -0.0466 C.ar    1  LIG1        0.0208
     15 C          -4.7456    2.5838   -0.4413 C.ar    1  LIG1       -0.0336
     16 C          -5.5738    3.7102   -0.4565 C.ar    1  LIG1        0.0513
     17 C          -6.9111    3.5643   -0.0490 C.ar    1  LIG1        0.0878
     18 N          -7.4103    2.3727    0.2864 N.ar    1  LIG1       -0.2530
     19 H          -3.7170    2.6836   -0.7590 H       1  LIG1        0.0637
     20 H          -7.0730    0.3585    0.5436 H       1  LIG1        0.0836
     21 C          -5.0304    4.9548   -0.9444 C.1     1  LIG1       -0.0675
     22 C          -4.5378    5.9642   -1.3722 C.1     1  LIG1       -0.1138
     23 H          -4.1157    6.8650   -1.7544 H       1  LIG1        0.1232
     24 C          -7.5291    5.9912    0.3869 C.ar    1  LIG1        0.0375
     25 C          -7.8831    4.6930    0.0110 C.ar    1  LIG1        0.0208
     26 C          -9.2226    4.4493   -0.2700 C.ar    1  LIG1       -0.0336
     27 C         -10.1480    5.4902   -0.1943 C.ar    1  LIG1        0.0513
     28 C          -9.6909    6.7609    0.2052 C.ar    1  LIG1        0.0878
     29 N          -8.4058    6.9832    0.4788 N.ar    1  LIG1       -0.2530
     30 H          -9.5423    3.4552   -0.5521 H       1  LIG1        0.0637
     31 H          -6.5053    6.2339    0.6385 H       1  LIG1        0.0836
     32 C         -11.5173    5.2292   -0.5675 C.1     1  LIG1       -0.0675
     33 C         -12.6426    4.9669   -0.8971 C.1     1  LIG1       -0.1138
     34 H         -13.6439    4.7483   -1.1882 H       1  LIG1        0.1232
     35 C         -11.8839    7.8758    0.8313 C.ar    1  LIG1        0.0368
     36 C         -10.5794    7.9522    0.3377 C.ar    1  LIG1        0.0208
     37 C         -10.0711    9.2087    0.0187 C.ar    1  LIG1       -0.0342
     38 C         -10.8931   10.3233    0.1656 C.ar    1  LIG1        0.0434
     39 C         -12.1926   10.1301    0.6495 C.ar    1  LIG1        0.0430
     40 N         -12.6714    8.9392    0.9836 N.ar    1  LIG1       -0.2614
     41 H          -9.0522    9.3091   -0.3304 H       1  LIG1        0.0637
     42 H         -12.8515   10.9807    0.7738 H       1  LIG1        0.0842
     43 H         -12.3028    6.9234    1.1282 H       1  LIG1        0.0836
     44 C         -10.4289   11.6486   -0.1645 C.1     1  LIG1       -0.0681
     45 C         -10.0416   12.7525   -0.4394 C.1     1  LIG1       -0.1139
     46 H          -9.6946   13.7302   -0.6828 H       1  LIG1        0.1232
@<TRIPOS>BOND
     1    23    22    1
     2    22    21    3
     3    34    33    1
     4    21    16    1
     5    33    32    3
     6    19    15    1
     7    46    45    1
     8     9     1    1
     9    32    27    1
    10    30    26    1
    11    16    15   ar
    12    16    17   ar
    13    15    14   ar
    14    45    44    3
    15     1     6   ar
    16     1     2   ar
    17     6     5   ar
    18    41    37    1
    19    26    27   ar
    20    26    25   ar
    21    27    28   ar
    22    44    38    1
    23     8     2    1
    24    17    25    1
    25    17    18   ar
    26    14     5    1
    27    14    13   ar
    28     2     3   ar
    29     5     4   ar
    30    25    24   ar
    31    37    38   ar
    32    37    36   ar
    33    38    39   ar
    34    28    36    1
    35    28    29   ar
    36    13    18   ar
    37    13    20    1
    38     3     4   ar
    39     3     7    1
    40    36    35   ar
    41     4    10    1
    42    24    29   ar
    43    24    31    1
    44    39    42    1
    45    39    40   ar
    46    10    11    3
    47    35    40   ar
    48    35    43    1
    49    11    12    1
