@<TRIPOS>MOLECULE
mol_data/opt/m06hf/geoms/mol2/6ae6ae6ae-6ae-.out
 46 49 0 0 0
SMALL
GASTEIGER

@<TRIPOS>ATOM
      1 C          -4.4821   -2.1698   -0.2389 C.ar    1  LIG1        0.0283
      2 C          -3.1022   -2.2853   -0.0861 C.ar    1  LIG1       -0.0424
      3 C          -2.3718   -1.1257    0.1162 C.ar    1  LIG1       -0.0428
      4 C          -3.0314    0.1070    0.1456 C.ar    1  LIG1        0.0507
      5 C          -4.4251    0.1209   -0.0495 C.ar    1  LIG1        0.0878
      6 N          -5.1185   -1.0047   -0.2224 N.ar    1  LIG1       -0.2537
      7 H          -1.3005   -1.1516    0.2634 H       1  LIG1        0.0631
      8 H          -2.6252   -3.2545   -0.1146 H       1  LIG1        0.0633
      9 H          -5.0990   -3.0481   -0.3839 H       1  LIG1        0.0830
     10 C          -2.2645    1.2982    0.4181 C.1     1  LIG1       -0.0675
     11 C          -1.5846    2.2594    0.6599 C.1     1  LIG1       -0.1138
     12 H          -0.9940    3.1193    0.8798 H       1  LIG1        0.1232
     13 C          -6.5479    1.3169    0.4467 C.ar    1  LIG1        0.0375
     14 C          -5.2401    1.3696   -0.0506 C.ar    1  LIG1        0.0208
     15 C          -4.8031    2.5783   -0.5742 C.ar    1  LIG1       -0.0336
     16 C          -5.6527    3.6889   -0.5492 C.ar    1  LIG1        0.0513
     17 C          -6.9268    3.5451    0.0258 C.ar    1  LIG1        0.0878
     18 N          -7.3520    2.3677    0.4897 N.ar    1  LIG1       -0.2530
     19 H          -3.8237    2.6758   -1.0216 H       1  LIG1        0.0637
     20 H          -6.9377    0.3784    0.8189 H       1  LIG1        0.0836
     21 C          -5.2008    4.9151   -1.1612 C.1     1  LIG1       -0.0675
     22 C          -4.7866    5.9113   -1.6904 C.1     1  LIG1       -0.1138
     23 H          -4.4344    6.8018   -2.1579 H       1  LIG1        0.1232
     24 C          -7.5517    5.9824    0.3910 C.ar    1  LIG1        0.0375
     25 C          -7.9130    4.6576    0.1349 C.ar    1  LIG1        0.0208
     26 C          -9.2705    4.3677    0.0550 C.ar    1  LIG1       -0.0336
     27 C         -10.2069    5.3949    0.1688 C.ar    1  LIG1        0.0513
     28 C          -9.7369    6.7077    0.3674 C.ar    1  LIG1        0.0878
     29 N          -8.4363    6.9658    0.4996 N.ar    1  LIG1       -0.2530
     30 H          -9.5947    3.3445   -0.0790 H       1  LIG1        0.0637
     31 H          -6.5140    6.2571    0.5243 H       1  LIG1        0.0836
     32 C         -11.6101    5.0593    0.1266 C.1     1  LIG1       -0.0675
     33 C         -12.7647    4.7279    0.0948 C.1     1  LIG1       -0.1138
     34 H         -13.7909    4.4418    0.0738 H       1  LIG1        0.1232
     35 C         -10.2581    8.9314    1.3451 C.ar    1  LIG1        0.0368
     36 C         -10.6351    7.8921    0.4869 C.ar    1  LIG1        0.0208
     37 C         -11.8102    8.0394   -0.2422 C.ar    1  LIG1       -0.0342
     38 C         -12.5639    9.2009   -0.0668 C.ar    1  LIG1        0.0434
     39 C         -12.1049   10.1659    0.8344 C.ar    1  LIG1        0.0430
     40 N         -10.9756   10.0361    1.5219 N.ar    1  LIG1       -0.2614
     41 H         -12.1398    7.2836   -0.9409 H       1  LIG1        0.0637
     42 H         -12.6776   11.0716    0.9908 H       1  LIG1        0.0842
     43 H          -9.3327    8.8467    1.9007 H       1  LIG1        0.0836
     44 C         -13.7893    9.4132   -0.7977 C.1     1  LIG1       -0.0681
     45 C         -14.8109    9.5897   -1.4049 C.1     1  LIG1       -0.1139
     46 H         -15.7164    9.7479   -1.9437 H       1  LIG1        0.1232
@<TRIPOS>BOND
     1    23    22    1
     2    46    45    1
     3    22    21    3
     4    45    44    3
     5    21    16    1
     6    19    15    1
     7    41    37    1
     8    44    38    1
     9    15    16   ar
    10    15    14   ar
    11    16    17   ar
    12     9     1    1
    13    37    38   ar
    14    37    36   ar
    15     1     6   ar
    16     1     2   ar
    17     6     5   ar
    18     8     2    1
    19     2     3   ar
    20    30    26    1
    21    38    39   ar
    22    14     5    1
    23    14    13   ar
    24     5     4   ar
    25    17    25    1
    26    17    18   ar
    27    26    25   ar
    28    26    27   ar
    29    34    33    1
    30    33    32    3
    31     3     4   ar
    32     3     7    1
    33    32    27    1
    34    25    24   ar
    35     4    10    1
    36    27    28   ar
    37    28    36    1
    38    28    29   ar
    39    24    29   ar
    40    24    31    1
    41    10    11    3
    42    13    18   ar
    43    13    20    1
    44    36    35   ar
    45    11    12    1
    46    39    42    1
    47    39    40   ar
    48    35    40   ar
    49    35    43    1
