@<TRIPOS>MOLECULE
mol_data/opt/m06hf/geoms/mol2/6ae6ae-6ae-6ae.out
 46 49 0 0 0
SMALL
GASTEIGER

@<TRIPOS>ATOM
      1 C          -4.1582   -1.9696    1.1190 C.ar    1  LIG1        0.0283
      2 C          -2.8964   -2.1286    0.5508 C.ar    1  LIG1       -0.0424
      3 C          -2.3951   -1.0902   -0.2168 C.ar    1  LIG1       -0.0428
      4 C          -3.1515    0.0750   -0.3787 C.ar    1  LIG1        0.0507
      5 C          -4.3984    0.1536    0.2694 C.ar    1  LIG1        0.0878
      6 N          -4.8807   -0.8644    0.9825 N.ar    1  LIG1       -0.2537
      7 H          -1.4327   -1.1621   -0.7055 H       1  LIG1        0.0631
      8 H          -2.3372   -3.0415    0.6980 H       1  LIG1        0.0633
      9 H          -4.6047   -2.7606    1.7092 H       1  LIG1        0.0830
     10 C          -2.6424    1.1185   -1.2351 C.1     1  LIG1       -0.0675
     11 C          -2.1810    1.9536   -1.9662 C.1     1  LIG1       -0.1138
     12 H          -1.7852    2.7026   -2.6135 H       1  LIG1        0.1232
     13 C          -4.8093    2.6612    0.1886 C.ar    1  LIG1        0.0375
     14 C          -5.2882    1.3487    0.1990 C.ar    1  LIG1        0.0208
     15 C          -6.6662    1.1705    0.2310 C.ar    1  LIG1       -0.0336
     16 C          -7.5116    2.2794    0.1970 C.ar    1  LIG1        0.0513
     17 C          -6.9284    3.5592    0.1320 C.ar    1  LIG1        0.0878
     18 N          -5.6062    3.7214    0.1533 N.ar    1  LIG1       -0.2530
     19 H          -7.0781    0.1726    0.3034 H       1  LIG1        0.0637
     20 H          -3.7471    2.8629    0.2245 H       1  LIG1        0.0836
     21 C          -8.9365    2.0674    0.2835 C.1     1  LIG1       -0.0675
     22 C         -10.1138    1.8424    0.3708 C.1     1  LIG1       -0.1138
     23 H         -11.1596    1.6553    0.4554 H       1  LIG1        0.1232
     24 C          -7.1917    5.9691    0.6862 C.ar    1  LIG1        0.0375
     25 C          -7.7195    4.8216    0.0822 C.ar    1  LIG1        0.0208
     26 C          -8.9329    4.9495   -0.5805 C.ar    1  LIG1       -0.0336
     27 C          -9.5932    6.1817   -0.5799 C.ar    1  LIG1        0.0513
     28 C          -9.0089    7.2559    0.1139 C.ar    1  LIG1        0.0878
     29 N          -7.8193    7.1351    0.7072 N.ar    1  LIG1       -0.2530
     30 H          -9.3715    4.1194   -1.1161 H       1  LIG1        0.0637
     31 H          -6.2232    5.9194    1.1670 H       1  LIG1        0.0836
     32 C         -10.8152    6.3088   -1.3371 C.1     1  LIG1       -0.0675
     33 C         -11.8198    6.3724   -1.9934 C.1     1  LIG1       -0.1138
     34 H         -12.7099    6.4457   -2.5748 H       1  LIG1        0.1232
     35 C         -11.0109    8.7886    0.3770 C.ar    1  LIG1        0.0368
     36 C          -9.6349    8.6050    0.2206 C.ar    1  LIG1        0.0208
     37 C          -8.8166    9.7314    0.2347 C.ar    1  LIG1       -0.0342
     38 C          -9.4049   10.9870    0.3622 C.ar    1  LIG1        0.0434
     39 C         -10.7972   11.0575    0.4921 C.ar    1  LIG1        0.0430
     40 N         -11.5785    9.9859    0.5093 N.ar    1  LIG1       -0.2614
     41 H          -7.7432    9.6231    0.1539 H       1  LIG1        0.0637
     42 H         -11.2782   12.0228    0.5946 H       1  LIG1        0.0842
     43 H         -11.6767    7.9364    0.4130 H       1  LIG1        0.0836
     44 C          -8.6138   12.1930    0.3682 C.1     1  LIG1       -0.0681
     45 C          -7.9600   13.2005    0.3738 C.1     1  LIG1       -0.1139
     46 H          -7.3787   14.0929    0.3795 H       1  LIG1        0.1232
@<TRIPOS>BOND
     1    12    11    1
     2    34    33    1
     3    33    32    3
     4    11    10    3
     5    32    27    1
     6    10     4    1
     7    30    26    1
     8     7     3    1
     9    26    27   ar
    10    26    25   ar
    11    27    28   ar
    12     4     3   ar
    13     4     5   ar
    14     3     2   ar
    15    25    17    1
    16    25    24   ar
    17    28    36    1
    18    28    29   ar
    19    17    18   ar
    20    17    16   ar
    21    18    13   ar
    22    41    37    1
    23    13    14   ar
    24    13    20    1
    25    16    15   ar
    26    16    21    1
    27    14    15   ar
    28    14     5    1
    29    36    37   ar
    30    36    35   ar
    31    15    19    1
    32    37    38   ar
    33     5     6   ar
    34    21    22    3
    35    38    44    1
    36    38    39   ar
    37    44    45    3
    38    22    23    1
    39    45    46    1
    40    35    43    1
    41    35    40   ar
    42    39    40   ar
    43    39    42    1
    44     2     8    1
    45     2     1   ar
    46    24    29   ar
    47    24    31    1
    48     6     1   ar
    49     1     9    1
