@<TRIPOS>MOLECULE
mol_data/opt/m06hf/geoms/mol2/6ae6ae-6ae.out
 35 37 0 0 0
SMALL
GASTEIGER

@<TRIPOS>ATOM
      1 C          -4.5067   -2.1103    0.5196 C.ar    1  LIG1        0.0283
      2 C          -3.1362   -2.2004    0.2881 C.ar    1  LIG1       -0.0424
      3 C          -2.4542   -1.0379   -0.0318 C.ar    1  LIG1       -0.0428
      4 C          -3.1498    0.1739   -0.0914 C.ar    1  LIG1        0.0507
      5 C          -4.5272    0.1656    0.1961 C.ar    1  LIG1        0.0878
      6 N          -5.1766   -0.9647    0.4757 N.ar    1  LIG1       -0.2537
      7 H          -1.3947   -1.0452   -0.2485 H       1  LIG1        0.0631
      8 H          -2.6297   -3.1535    0.3453 H       1  LIG1        0.0633
      9 H          -5.0886   -2.9935    0.7526 H       1  LIG1        0.0830
     10 C          -2.4370    1.3633   -0.4904 C.1     1  LIG1       -0.0675
     11 C          -1.8019    2.3224   -0.8380 C.1     1  LIG1       -0.1138
     12 H          -1.2511    3.1805   -1.1477 H       1  LIG1        0.1232
     13 C          -4.9329    2.6378    0.6342 C.ar    1  LIG1        0.0375
     14 C          -5.3761    1.3923    0.1829 C.ar    1  LIG1        0.0208
     15 C          -6.6929    1.2990   -0.2510 C.ar    1  LIG1       -0.0336
     16 C          -7.5069    2.4317   -0.2482 C.ar    1  LIG1        0.0513
     17 C          -6.9674    3.6386    0.2347 C.ar    1  LIG1        0.0878
     18 N          -5.7057    3.7167    0.6563 N.ar    1  LIG1       -0.2530
     19 H          -7.0814    0.3504   -0.5964 H       1  LIG1        0.0637
     20 H          -3.9254    2.7654    1.0064 H       1  LIG1        0.0836
     21 C          -8.8432    2.3247   -0.7820 C.1     1  LIG1       -0.0675
     22 C          -9.9428    2.1893   -1.2475 C.1     1  LIG1       -0.1138
     23 H         -10.9200    2.0843   -1.6593 H       1  LIG1        0.1232
     24 C          -9.0882    4.9723    0.6409 C.ar    1  LIG1        0.0368
     25 C          -7.7360    4.9161    0.2923 C.ar    1  LIG1        0.0208
     26 C          -7.0719    6.1141    0.0443 C.ar    1  LIG1       -0.0342
     27 C          -7.7891    7.3063    0.1101 C.ar    1  LIG1        0.0434
     28 C          -9.1466    7.2460    0.4472 C.ar    1  LIG1        0.0430
     29 N          -9.7762    6.1099    0.7169 N.ar    1  LIG1       -0.2614
     30 H          -6.0163    6.1111   -0.1914 H       1  LIG1        0.0637
     31 H          -9.7270    8.1588    0.5060 H       1  LIG1        0.0842
     32 H          -9.6304    4.0676    0.8820 H       1  LIG1        0.0836
     33 C          -7.1604    8.5766   -0.1576 C.1     1  LIG1       -0.0681
     34 C          -6.6370    9.6347   -0.3803 C.1     1  LIG1       -0.1139
     35 H          -6.1698   10.5716   -0.5774 H       1  LIG1        0.1232
@<TRIPOS>BOND
     1    23    22    1
     2    22    21    3
     3    12    11    1
     4    11    10    3
     5    21    16    1
     6    19    15    1
     7    35    34    1
     8    10     4    1
     9    34    33    3
    10    15    16   ar
    11    15    14   ar
    12     7     3    1
    13    16    17   ar
    14    30    26    1
    15    33    27    1
    16     4     3   ar
    17     4     5   ar
    18     3     2   ar
    19    26    27   ar
    20    26    25   ar
    21    27    28   ar
    22    14     5    1
    23    14    13   ar
    24     5     6   ar
    25    17    25    1
    26    17    18   ar
    27     2     8    1
    28     2     1   ar
    29    25    24   ar
    30    28    31    1
    31    28    29   ar
    32     6     1   ar
    33     1     9    1
    34    13    18   ar
    35    13    20    1
    36    24    29   ar
    37    24    32    1
