@<TRIPOS>MOLECULE
mol_data/opt/m06hf/geoms/mol2/6ae6ae6ae6ae-.out
 46 49 0 0 0
SMALL
GASTEIGER

@<TRIPOS>ATOM
      1 C          -4.3875   -1.9687   -1.1427 C.ar    1  LIG1        0.0283
      2 C          -3.1765   -2.2690   -0.5227 C.ar    1  LIG1       -0.0424
      3 C          -2.6053   -1.3019    0.2883 C.ar    1  LIG1       -0.0428
      4 C          -3.2442   -0.0676    0.4429 C.ar    1  LIG1        0.0507
      5 C          -4.4480    0.1505   -0.2528 C.ar    1  LIG1        0.0878
      6 N          -4.9989   -0.7977   -1.0112 N.ar    1  LIG1       -0.2537
      7 H          -1.6782   -1.4832    0.8153 H       1  LIG1        0.0631
      8 H          -2.7094   -3.2328   -0.6650 H       1  LIG1        0.0633
      9 H          -4.8844   -2.6981   -1.7708 H       1  LIG1        0.0830
     10 C          -2.6641    0.9054    1.3364 C.1     1  LIG1       -0.0675
     11 C          -2.1462    1.6784    2.0973 C.1     1  LIG1       -0.1138
     12 H          -1.7008    2.3722    2.7731 H       1  LIG1        0.1232
     13 C          -6.6146    1.3706   -0.2425 C.ar    1  LIG1        0.0375
     14 C          -5.2171    1.4261   -0.1839 C.ar    1  LIG1        0.0208
     15 C          -4.6294    2.6806   -0.1017 C.ar    1  LIG1       -0.0336
     16 C          -5.4383    3.8209   -0.0749 C.ar    1  LIG1        0.0513
     17 C          -6.8320    3.6572   -0.1482 C.ar    1  LIG1        0.0878
     18 N          -7.3877    2.4452   -0.2176 N.ar    1  LIG1       -0.2530
     19 H          -3.5556    2.7970   -0.0579 H       1  LIG1        0.0637
     20 H          -7.1061    0.4090   -0.3178 H       1  LIG1        0.0836
     21 C          -4.8028    5.1091    0.0631 C.1     1  LIG1       -0.0675
     22 C          -4.2293    6.1579    0.1875 C.1     1  LIG1       -0.1138
     23 H          -3.7347    7.0947    0.3022 H       1  LIG1        0.1232
     24 C          -9.0441    4.6046    0.4770 C.ar    1  LIG1        0.0375
     25 C          -7.7962    4.7936   -0.1284 C.ar    1  LIG1        0.0208
     26 C          -7.5588    6.0219   -0.7302 C.ar    1  LIG1       -0.0336
     27 C          -8.5346    7.0210   -0.6702 C.ar    1  LIG1        0.0513
     28 C          -9.7282    6.7527    0.0231 C.ar    1  LIG1        0.0878
     29 N          -9.9656    5.5525    0.5566 N.ar    1  LIG1       -0.2530
     30 H          -6.6422    6.2174   -1.2683 H       1  LIG1        0.0637
     31 H          -9.2865    3.6417    0.9081 H       1  LIG1        0.0836
     32 C          -8.2901    8.2593   -1.3702 C.1     1  LIG1       -0.0675
     33 C          -8.0447    9.2660   -1.9797 C.1     1  LIG1       -0.1138
     34 H          -7.8428   10.1629   -2.5194 H       1  LIG1        0.1232
     35 C         -10.5853    9.1111    0.3912 C.ar    1  LIG1        0.0368
     36 C         -10.8246    7.7490    0.1952 C.ar    1  LIG1        0.0208
     37 C         -12.1431    7.3027    0.2309 C.ar    1  LIG1       -0.0342
     38 C         -13.1618    8.2333    0.4201 C.ar    1  LIG1        0.0434
     39 C         -12.8103    9.5787    0.5848 C.ar    1  LIG1        0.0430
     40 N         -11.5544   10.0047    0.5810 N.ar    1  LIG1       -0.2614
     41 H         -12.3627    6.2492    0.1203 H       1  LIG1        0.0637
     42 H         -13.5845   10.3213    0.7339 H       1  LIG1        0.0842
     43 H          -9.5728    9.4921    0.4118 H       1  LIG1        0.0836
     44 C         -14.5479    7.8360    0.4530 C.1     1  LIG1       -0.0681
     45 C         -15.7029    7.5076    0.4811 C.1     1  LIG1       -0.1139
     46 H         -16.7261    7.2126    0.5064 H       1  LIG1        0.1232
@<TRIPOS>BOND
     1    34    33    1
     2    33    32    3
     3     9     1    1
     4    32    27    1
     5    30    26    1
     6     1     6   ar
     7     1     2   ar
     8     6     5   ar
     9    26    27   ar
    10    26    25   ar
    11    27    28   ar
    12     8     2    1
    13     2     3   ar
    14    20    13    1
    15     5    14    1
    16     5     4   ar
    17    13    18   ar
    18    13    14   ar
    19    18    17   ar
    20    14    15   ar
    21    17    25    1
    22    17    16   ar
    23    25    24   ar
    24    15    16   ar
    25    15    19    1
    26    16    21    1
    27    28    36    1
    28    28    29   ar
    29    21    22    3
    30    41    37    1
    31    22    23    1
    32    36    37   ar
    33    36    35   ar
    34    37    38   ar
    35     3     4   ar
    36     3     7    1
    37    35    43    1
    38    35    40   ar
    39    38    44    1
    40    38    39   ar
    41     4    10    1
    42    44    45    3
    43    24    29   ar
    44    24    31    1
    45    45    46    1
    46    40    39   ar
    47    39    42    1
    48    10    11    3
    49    11    12    1
