@<TRIPOS>MOLECULE
mol_data/opt/m06hf/geoms/mol2/6ae6ae6ae.out
 35 37 0 0 0
SMALL
GASTEIGER

@<TRIPOS>ATOM
      1 C          -4.5671   -1.9672   -1.0745 C.ar    1  LIG1        0.0283
      2 C          -3.2465   -2.2155   -0.7086 C.ar    1  LIG1       -0.0424
      3 C          -2.5493   -1.2029   -0.0703 C.ar    1  LIG1       -0.0428
      4 C          -3.1787    0.0229    0.1683 C.ar    1  LIG1        0.0507
      5 C          -4.5057    0.1869   -0.2706 C.ar    1  LIG1        0.0878
      6 N          -5.1720   -0.8044   -0.8634 N.ar    1  LIG1       -0.2537
      7 H          -1.5284   -1.3410    0.2594 H       1  LIG1        0.0631
      8 H          -2.7906   -3.1743   -0.9091 H       1  LIG1        0.0633
      9 H          -5.1616   -2.7321   -1.5586 H       1  LIG1        0.0830
     10 C          -2.4528    1.0422    0.8869 C.1     1  LIG1       -0.0675
     11 C          -1.8062    1.8527    1.4951 C.1     1  LIG1       -0.1138
     12 H          -1.2451    2.5803    2.0356 H       1  LIG1        0.1232
     13 C          -6.6618    1.3613    0.1217 C.ar    1  LIG1        0.0375
     14 C          -5.2816    1.4479   -0.0936 C.ar    1  LIG1        0.0208
     15 C          -4.7249    2.7170   -0.1676 C.ar    1  LIG1       -0.0336
     16 C          -5.5448    3.8399   -0.0203 C.ar    1  LIG1        0.0513
     17 C          -6.9227    3.6456    0.1791 C.ar    1  LIG1        0.0878
     18 N          -7.4457    2.4197    0.2579 N.ar    1  LIG1       -0.2530
     19 H          -3.6671    2.8587   -0.3375 H       1  LIG1        0.0637
     20 H          -7.1324    0.3880    0.1767 H       1  LIG1        0.0836
     21 C          -4.9270    5.1441   -0.0428 C.1     1  LIG1       -0.0675
     22 C          -4.3627    6.2051   -0.0566 C.1     1  LIG1       -0.1138
     23 H          -3.8744    7.1522   -0.0634 H       1  LIG1        0.1232
     24 C          -8.9995    4.5672    1.1810 C.ar    1  LIG1        0.0368
     25 C          -7.8990    4.7613    0.3378 C.ar    1  LIG1        0.0208
     26 C          -7.8021    5.9697   -0.3439 C.ar    1  LIG1       -0.0342
     27 C          -8.7907    6.9334   -0.1387 C.ar    1  LIG1        0.0434
     28 C          -9.8352    6.6423    0.7435 C.ar    1  LIG1        0.0430
     29 N          -9.9390    5.4845    1.3865 N.ar    1  LIG1       -0.2614
     30 H          -6.9903    6.1672   -1.0296 H       1  LIG1        0.0637
     31 H         -10.6099    7.3778    0.9214 H       1  LIG1        0.0842
     32 H          -9.1073    3.6224    1.6985 H       1  LIG1        0.0836
     33 C          -8.7496    8.2031   -0.8221 C.1     1  LIG1       -0.0681
     34 C          -8.7170    9.2614   -1.3902 C.1     1  LIG1       -0.1139
     35 H          -8.6910   10.1995   -1.8949 H       1  LIG1        0.1232
@<TRIPOS>BOND
     1    35    34    1
     2     9     1    1
     3    34    33    3
     4     1     6   ar
     5     1     2   ar
     6    30    26    1
     7     8     2    1
     8     6     5   ar
     9    33    27    1
    10     2     3   ar
    11    26    27   ar
    12    26    25   ar
    13    19    15    1
    14     5    14    1
    15     5     4   ar
    16    15    14   ar
    17    15    16   ar
    18    27    28   ar
    19    14    13   ar
    20     3     4   ar
    21     3     7    1
    22    23    22    1
    23    22    21    3
    24    21    16    1
    25    16    17   ar
    26    13    20    1
    27    13    18   ar
    28     4    10    1
    29    17    18   ar
    30    17    25    1
    31    25    24   ar
    32    28    31    1
    33    28    29   ar
    34    10    11    3
    35    24    29   ar
    36    24    32    1
    37    11    12    1
