@<TRIPOS>MOLECULE
mol_data/opt/m06hf/geoms/mol2/6ae6ae-6ae-6ae-.out
 46 49 0 0 0
SMALL
GASTEIGER

@<TRIPOS>ATOM
      1 C          -4.3478   -2.1596    0.5465 C.ar    1  LIG1        0.0283
      2 C          -2.9790   -2.2299    0.2966 C.ar    1  LIG1       -0.0424
      3 C          -2.3253   -1.0643   -0.0673 C.ar    1  LIG1       -0.0428
      4 C          -3.0452    0.1315   -0.1534 C.ar    1  LIG1        0.0507
      5 C          -4.4180    0.1051    0.1545 C.ar    1  LIG1        0.0878
      6 N          -5.0400   -1.0288    0.4786 N.ar    1  LIG1       -0.2537
      7 H          -1.2688   -1.0579   -0.2998 H       1  LIG1        0.0631
      8 H          -2.4535   -3.1710    0.3737 H       1  LIG1        0.0633
      9 H          -4.9084   -3.0466    0.8140 H       1  LIG1        0.0830
     10 C          -2.3605    1.3199   -0.6014 C.1     1  LIG1       -0.0675
     11 C          -1.7454    2.2767   -0.9902 C.1     1  LIG1       -0.1138
     12 H          -1.2126    3.1328   -1.3361 H       1  LIG1        0.1232
     13 C          -4.8668    2.5845    0.5046 C.ar    1  LIG1        0.0375
     14 C          -5.2939    1.3124    0.1156 C.ar    1  LIG1        0.0208
     15 C          -6.6198    1.1719   -0.2766 C.ar    1  LIG1       -0.0336
     16 C          -7.4593    2.2856   -0.2943 C.ar    1  LIG1        0.0513
     17 C          -6.9334    3.5226    0.1228 C.ar    1  LIG1        0.0878
     18 N          -5.6631    3.6464    0.5058 N.ar    1  LIG1       -0.2530
     19 H          -6.9956    0.2013   -0.5711 H       1  LIG1        0.0637
     20 H          -3.8519    2.7486    0.8414 H       1  LIG1        0.0836
     21 C          -8.8109    2.1283   -0.7746 C.1     1  LIG1       -0.0675
     22 C          -9.9242    1.9514   -1.1910 C.1     1  LIG1       -0.1138
     23 H         -10.9117    1.8043   -1.5632 H       1  LIG1        0.1232
     24 C          -7.0876    5.9914   -0.1323 C.ar    1  LIG1        0.0375
     25 C          -7.7300    4.7818    0.1542 C.ar    1  LIG1        0.0208
     26 C          -9.0705    4.8387    0.5103 C.ar    1  LIG1       -0.0336
     27 C          -9.7262    6.0730    0.5323 C.ar    1  LIG1        0.0513
     28 C          -9.0043    7.2240    0.1718 C.ar    1  LIG1        0.0878
     29 N          -7.7062    7.1625   -0.1334 N.ar    1  LIG1       -0.2530
     30 H          -9.6143    3.9482    0.7927 H       1  LIG1        0.0637
     31 H          -6.0311    5.9901   -0.3687 H       1  LIG1        0.0836
     32 C         -11.0986    6.1131    0.9773 C.1     1  LIG1       -0.0675
     33 C         -12.2351    6.0985    1.3684 C.1     1  LIG1       -0.1138
     34 H         -13.2404    6.1001    1.7219 H       1  LIG1        0.1232
     35 C          -8.7965    9.6786    0.4863 C.ar    1  LIG1        0.0368
     36 C          -9.6021    8.5894    0.1339 C.ar    1  LIG1        0.0208
     37 C         -10.9069    8.8452   -0.2739 C.ar    1  LIG1       -0.0342
     38 C         -11.3534   10.1677   -0.2920 C.ar    1  LIG1        0.0434
     39 C         -10.4700   11.1772    0.1012 C.ar    1  LIG1        0.0430
     40 N          -9.2187   10.9387    0.4784 N.ar    1  LIG1       -0.2614
     41 H         -11.5683    8.0490   -0.5850 H       1  LIG1        0.0637
     42 H         -10.7973   12.2094    0.0989 H       1  LIG1        0.0842
     43 H          -7.7698    9.5013    0.7810 H       1  LIG1        0.0836
     44 C         -12.6931   10.4978   -0.7127 C.1     1  LIG1       -0.0681
     45 C         -13.8082   10.7748   -1.0639 C.1     1  LIG1       -0.1139
     46 H         -14.7956   11.0229   -1.3772 H       1  LIG1        0.1232
@<TRIPOS>BOND
     1    23    22    1
     2    46    45    1
     3    12    11    1
     4    22    21    3
     5    45    44    3
     6    11    10    3
     7    21    16    1
     8    44    38    1
     9    10     4    1
    10    41    37    1
    11    19    15    1
    12    31    24    1
    13     7     3    1
    14    16    15   ar
    15    16    17   ar
    16    38    37   ar
    17    38    39   ar
    18    15    14   ar
    19    37    36   ar
    20     4     3   ar
    21     4     5   ar
    22    29    24   ar
    23    29    28   ar
    24    24    25   ar
    25     3     2   ar
    26    42    39    1
    27    39    40   ar
    28    14     5    1
    29    14    13   ar
    30    17    25    1
    31    17    18   ar
    32    36    28    1
    33    36    35   ar
    34    25    26   ar
    35     5     6   ar
    36    28    27   ar
    37     2     8    1
    38     2     1   ar
    39    40    35   ar
    40     6     1   ar
    41    35    43    1
    42    13    18   ar
    43    13    20    1
    44    26    27   ar
    45    26    30    1
    46    27    32    1
    47     1     9    1
    48    32    33    3
    49    33    34    1
