@<TRIPOS>MOLECULE
mol_data/opt/m06hf/geoms/mol2/6ae6ae-.out
 24 25 0 0 0
SMALL
GASTEIGER

@<TRIPOS>ATOM
      1 C          -4.4779   -2.0654    0.2177 C.ar    1  LIG1        0.0283
      2 C          -3.1384   -2.1051   -0.1624 C.ar    1  LIG1       -0.0424
      3 C          -2.5066   -0.9028   -0.4358 C.ar    1  LIG1       -0.0428
      4 C          -3.2175    0.2939   -0.3064 C.ar    1  LIG1        0.0507
      5 C          -4.5580    0.2305    0.1197 C.ar    1  LIG1        0.0878
      6 N          -5.1611   -0.9351    0.3540 N.ar    1  LIG1       -0.2537
      7 H          -1.4755   -0.8686   -0.7610 H       1  LIG1        0.0631
      8 H          -2.6186   -3.0479   -0.2523 H       1  LIG1        0.0633
      9 H          -5.0226   -2.9788    0.4233 H       1  LIG1        0.0830
     10 C          -2.5629    1.5305   -0.6596 C.1     1  LIG1       -0.0675
     11 C          -1.9803    2.5328   -0.9770 C.1     1  LIG1       -0.1138
     12 H          -1.4815    3.4322   -1.2574 H       1  LIG1        0.1232
     13 C          -4.9292    2.6341    0.8418 C.ar    1  LIG1        0.0368
     14 C          -5.4153    1.4371    0.3112 C.ar    1  LIG1        0.0208
     15 C          -6.7719    1.3561    0.0073 C.ar    1  LIG1       -0.0342
     16 C          -7.5719    2.4792    0.2034 C.ar    1  LIG1        0.0434
     17 C          -6.9754    3.6373    0.7180 C.ar    1  LIG1        0.0430
     18 N          -5.6908    3.7084    1.0401 N.ar    1  LIG1       -0.2614
     19 H          -7.1886    0.4318   -0.3696 H       1  LIG1        0.0637
     20 H          -7.5749    4.5248    0.8782 H       1  LIG1        0.0842
     21 H          -3.8901    2.7233    1.1306 H       1  LIG1        0.0836
     22 C          -8.9803    2.4663   -0.1076 C.1     1  LIG1       -0.0681
     23 C         -10.1538    2.4633   -0.3662 C.1     1  LIG1       -0.1139
     24 H         -11.1942    2.4631   -0.5971 H       1  LIG1        0.1232
@<TRIPOS>BOND
     1    12    11    1
     2    11    10    3
     3     7     3    1
     4    10     4    1
     5    24    23    1
     6     3     4   ar
     7     3     2   ar
     8    19    15    1
     9    23    22    3
    10     4     5   ar
    11     8     2    1
    12     2     1   ar
    13    22    16    1
    14    15    16   ar
    15    15    14   ar
    16     5    14    1
    17     5     6   ar
    18    16    17   ar
    19     1     6   ar
    20     1     9    1
    21    14    13   ar
    22    17    20    1
    23    17    18   ar
    24    13    18   ar
    25    13    21    1
