@<TRIPOS>MOLECULE
mol_data/opt/m06hf/geoms/mol2/6ae6ae-6ae6ae-.out
 46 49 0 0 0
SMALL
GASTEIGER

@<TRIPOS>ATOM
      1 C          -4.4350   -2.1535    0.6679 C.ar    1  LIG1        0.0283
      2 C          -3.0676   -2.2583    0.4229 C.ar    1  LIG1       -0.0424
      3 C          -2.3862   -1.1120    0.0486 C.ar    1  LIG1       -0.0428
      4 C          -3.0782    0.0988   -0.0540 C.ar    1  LIG1        0.0507
      5 C          -4.4523    0.1076    0.2491 C.ar    1  LIG1        0.0878
      6 N          -5.1007   -1.0081    0.5845 N.ar    1  LIG1       -0.2537
      7 H          -1.3291   -1.1326   -0.1802 H       1  LIG1        0.0631
      8 H          -2.5639   -3.2100    0.5125 H       1  LIG1        0.0633
      9 H          -5.0169   -3.0241    0.9438 H       1  LIG1        0.0830
     10 C          -2.3639    1.2652   -0.5138 C.1     1  LIG1       -0.0675
     11 C          -1.7235    2.2009   -0.9125 C.1     1  LIG1       -0.1138
     12 H          -1.1672    3.0377   -1.2684 H       1  LIG1        0.1232
     13 C          -4.8490    2.6026    0.5585 C.ar    1  LIG1        0.0375
     14 C          -5.3019    1.3328    0.1911 C.ar    1  LIG1        0.0208
     15 C          -6.6298    1.2138   -0.2015 C.ar    1  LIG1       -0.0336
     16 C          -7.4470    2.3437   -0.2384 C.ar    1  LIG1        0.0513
     17 C          -6.8976    3.5758    0.1625 C.ar    1  LIG1        0.0878
     18 N          -5.6245    3.6797    0.5427 N.ar    1  LIG1       -0.2530
     19 H          -7.0248    0.2471   -0.4828 H       1  LIG1        0.0637
     20 H          -3.8311    2.7527    0.8923 H       1  LIG1        0.0836
     21 C          -8.7974    2.2037   -0.7278 C.1     1  LIG1       -0.0675
     22 C          -9.9081    2.0361   -1.1545 C.1     1  LIG1       -0.1138
     23 H         -10.8942    1.8976   -1.5338 H       1  LIG1        0.1232
     24 C          -9.0145    4.9362    0.5296 C.ar    1  LIG1        0.0375
     25 C          -7.6656    4.8540    0.1757 C.ar    1  LIG1        0.0208
     26 C          -7.0110    6.0397   -0.1358 C.ar    1  LIG1       -0.0336
     27 C          -7.7108    7.2462   -0.1126 C.ar    1  LIG1        0.0513
     28 C          -9.0662    7.2233    0.2682 C.ar    1  LIG1        0.0878
     29 N          -9.6827    6.0820    0.5731 N.ar    1  LIG1       -0.2530
     30 H          -5.9631    6.0229   -0.4037 H       1  LIG1        0.0637
     31 H          -9.5692    4.0487    0.8024 H       1  LIG1        0.0836
     32 C          -7.0286    8.4495   -0.5244 C.1     1  LIG1       -0.0675
     33 C          -6.4211    9.4215   -0.8860 C.1     1  LIG1       -0.1138
     34 H          -5.8959   10.2920   -1.2054 H       1  LIG1        0.1232
     35 C          -9.4498    9.6777    0.7912 C.ar    1  LIG1        0.0368
     36 C          -9.9226    8.4428    0.3408 C.ar    1  LIG1        0.0208
     37 C         -11.2701    8.3382    0.0051 C.ar    1  LIG1       -0.0342
     38 C         -12.0737    9.4723    0.0906 C.ar    1  LIG1        0.0434
     39 C         -11.4915   10.6663    0.5333 C.ar    1  LIG1        0.0430
     40 N         -10.2162   10.7631    0.8853 N.ar    1  LIG1       -0.2614
     41 H         -11.6776    7.3874   -0.3108 H       1  LIG1        0.0637
     42 H         -12.0945   11.5631    0.6092 H       1  LIG1        0.0842
     43 H          -8.4190    9.7907    1.1004 H       1  LIG1        0.0836
     44 C         -13.4721    9.4325   -0.2614 C.1     1  LIG1       -0.0681
     45 C         -14.6372    9.4054   -0.5544 C.1     1  LIG1       -0.1139
     46 H         -15.6703    9.3803   -0.8146 H       1  LIG1        0.1232
@<TRIPOS>BOND
     1    23    22    1
     2    12    11    1
     3    34    33    1
     4    22    21    3
     5    11    10    3
     6    33    32    3
     7    46    45    1
     8    21    16    1
     9    45    44    3
    10    32    27    1
    11    10     4    1
    12    19    15    1
    13    30    26    1
    14    41    37    1
    15    44    38    1
    16    16    15   ar
    17    16    17   ar
    18    15    14   ar
    19     7     3    1
    20    26    27   ar
    21    26    25   ar
    22    27    28   ar
    23     4     3   ar
    24     4     5   ar
    25    37    38   ar
    26    37    36   ar
    27     3     2   ar
    28    38    39   ar
    29    17    25    1
    30    17    18   ar
    31    25    24   ar
    32    14     5    1
    33    14    13   ar
    34     5     6   ar
    35    28    36    1
    36    28    29   ar
    37    36    35   ar
    38     2     8    1
    39     2     1   ar
    40    24    29   ar
    41    24    31    1
    42    39    42    1
    43    39    40   ar
    44    18    13   ar
    45    13    20    1
    46     6     1   ar
    47     1     9    1
    48    35    40   ar
    49    35    43    1
