@<TRIPOS>MOLECULE
mol_data/opt/m06hf/geoms/mol2/6ae6ae.out
 24 25 0 0 0
SMALL
GASTEIGER

@<TRIPOS>ATOM
      1 C          -4.5800   -2.0239   -0.5320 C.ar    1  LIG1        0.0283
      2 C          -3.1972   -2.1289   -0.4026 C.ar    1  LIG1       -0.0424
      3 C          -2.4900   -0.9888   -0.0569 C.ar    1  LIG1       -0.0428
      4 C          -3.1749    0.2150    0.1326 C.ar    1  LIG1        0.0507
      5 C          -4.5702    0.2260   -0.0546 C.ar    1  LIG1        0.0878
      6 N          -5.2407   -0.8843   -0.3651 N.ar    1  LIG1       -0.2537
      7 H          -1.4174   -1.0100    0.0816 H       1  LIG1        0.0631
      8 H          -2.6991   -3.0752   -0.5584 H       1  LIG1        0.0633
      9 H          -5.1808   -2.8891   -0.7832 H       1  LIG1        0.0830
     10 C          -2.4280    1.3767    0.5516 C.1     1  LIG1       -0.0675
     11 C          -1.7603    2.3089    0.9119 C.1     1  LIG1       -0.1138
     12 H          -1.1793    3.1411    1.2371 H       1  LIG1        0.1232
     13 C          -6.6992    1.3130    0.6229 C.ar    1  LIG1        0.0368
     14 C          -5.4079    1.4509    0.1015 C.ar    1  LIG1        0.0208
     15 C          -4.9903    2.7190   -0.2867 C.ar    1  LIG1       -0.0342
     16 C          -5.8673    3.7914   -0.1187 C.ar    1  LIG1        0.0434
     17 C          -7.1279    3.5438    0.4326 C.ar    1  LIG1        0.0430
     18 N          -7.5355    2.3317    0.7925 N.ar    1  LIG1       -0.2614
     19 H          -4.0147    2.8840   -0.7220 H       1  LIG1        0.0637
     20 H          -7.8225    4.3620    0.5768 H       1  LIG1        0.0842
     21 H          -7.0520    0.3292    0.9061 H       1  LIG1        0.0836
     22 C          -5.4947    5.1287   -0.5105 C.1     1  LIG1       -0.0681
     23 C          -5.1847    6.2426   -0.8361 C.1     1  LIG1       -0.1139
     24 H          -4.9124    7.2305   -1.1276 H       1  LIG1        0.1232
@<TRIPOS>BOND
     1    24    23    1
     2    23    22    3
     3     9     1    1
     4    19    15    1
     5     8     2    1
     6     1     2   ar
     7     1     6   ar
     8    22    16    1
     9     2     3   ar
    10     6     5   ar
    11    15    16   ar
    12    15    14   ar
    13    16    17   ar
    14     3     7    1
    15     3     4   ar
    16     5    14    1
    17     5     4   ar
    18    14    13   ar
    19     4    10    1
    20    17    20    1
    21    17    18   ar
    22    10    11    3
    23    13    18   ar
    24    13    21    1
    25    11    12    1
