@<TRIPOS>MOLECULE
mol_data/opt/m06hf/geoms/mol2/6ae6ae6ae6ae.out
 46 49 0 0 0
SMALL
GASTEIGER

@<TRIPOS>ATOM
      1 C          -4.6028   -2.2087    0.4998 C.ar    1  LIG1        0.0283
      2 C          -3.2528   -2.3865    0.2064 C.ar    1  LIG1       -0.0424
      3 C          -2.5146   -1.2716   -0.1562 C.ar    1  LIG1       -0.0428
      4 C          -3.1365   -0.0201   -0.2005 C.ar    1  LIG1        0.0507
      5 C          -4.4978    0.0597    0.1447 C.ar    1  LIG1        0.0878
      6 N          -5.2025   -1.0242    0.4699 N.ar    1  LIG1       -0.2537
      7 H          -1.4678   -1.3477   -0.4180 H       1  LIG1        0.0631
      8 H          -2.8044   -3.3687    0.2522 H       1  LIG1        0.0633
      9 H          -5.2267   -3.0513    0.7710 H       1  LIG1        0.0830
     10 C          -2.3691    1.1207   -0.6384 C.1     1  LIG1       -0.0675
     11 C          -1.6890    2.0351   -1.0197 C.1     1  LIG1       -0.1138
     12 H          -1.0975    2.8527   -1.3625 H       1  LIG1        0.1232
     13 C          -6.6155    1.3170   -0.2131 C.ar    1  LIG1        0.0375
     14 C          -5.2635    1.3392    0.1486 C.ar    1  LIG1        0.0208
     15 C          -4.7281    2.5554    0.5491 C.ar    1  LIG1       -0.0336
     16 C          -5.5307    3.6998    0.5368 C.ar    1  LIG1        0.0513
     17 C          -6.8605    3.5815    0.0971 C.ar    1  LIG1        0.0878
     18 N          -7.3773    2.3998   -0.2464 N.ar    1  LIG1       -0.2530
     19 H          -3.7055    2.6342    0.8915 H       1  LIG1        0.0637
     20 H          -7.0789    0.3770   -0.4844 H       1  LIG1        0.0836
     21 C          -4.9712    4.9369    1.0256 C.1     1  LIG1       -0.0675
     22 C          -4.4672    5.9407    1.4542 C.1     1  LIG1       -0.1138
     23 H          -4.0354    6.8356    1.8394 H       1  LIG1        0.1232
     24 C          -9.1636    4.5125    0.2337 C.ar    1  LIG1        0.0375
     25 C          -7.8006    4.7340    0.0054 C.ar    1  LIG1        0.0208
     26 C          -7.4135    6.0167   -0.3582 C.ar    1  LIG1       -0.0336
     27 C          -8.3737    7.0286   -0.4440 C.ar    1  LIG1        0.0513
     28 C          -9.7100    6.7144   -0.1429 C.ar    1  LIG1        0.0878
     29 N         -10.0772    5.4696    0.1710 N.ar    1  LIG1       -0.2530
     30 H          -6.3850    6.2461   -0.5986 H       1  LIG1        0.0637
     31 H          -9.5080    3.5152    0.4752 H       1  LIG1        0.0836
     32 C          -7.9530    8.3357   -0.8894 C.1     1  LIG1       -0.0675
     33 C          -7.5530    9.4008   -1.2769 C.1     1  LIG1       -0.1138
     34 H          -7.2118   10.3477   -1.6268 H       1  LIG1        0.1232
     35 C         -12.0829    7.2851   -0.6056 C.ar    1  LIG1        0.0368
     36 C         -10.8169    7.7126   -0.1879 C.ar    1  LIG1        0.0208
     37 C         -10.6686    9.0400    0.1988 C.ar    1  LIG1       -0.0342
     38 C         -11.7778    9.8841    0.1281 C.ar    1  LIG1        0.0434
     39 C         -12.9899    9.3579   -0.3281 C.ar    1  LIG1        0.0430
     40 N         -13.1401    8.0867   -0.6833 N.ar    1  LIG1       -0.2614
     41 H          -9.7236    9.4212    0.5589 H       1  LIG1        0.0637
     42 H         -13.8617    9.9969   -0.3972 H       1  LIG1        0.0842
     43 H         -12.2247    6.2479   -0.8830 H       1  LIG1        0.0836
     44 C         -11.6903   11.2691    0.5216 C.1     1  LIG1       -0.0681
     45 C         -11.6230   12.4233    0.8477 C.1     1  LIG1       -0.1139
     46 H         -11.5662   13.4464    1.1388 H       1  LIG1        0.1232
@<TRIPOS>BOND
     1    34    33    1
     2    12    11    1
     3    33    32    3
     4    11    10    3
     5    32    27    1
     6    43    35    1
     7    40    35   ar
     8    40    39   ar
     9    10     4    1
    10    35    36   ar
    11    30    26    1
    12    20    13    1
    13    27    26   ar
    14    27    28   ar
    15     7     3    1
    16    42    39    1
    17    26    25   ar
    18    39    38   ar
    19    18    13   ar
    20    18    17   ar
    21    13    14   ar
    22     4     3   ar
    23     4     5   ar
    24    36    28    1
    25    36    37   ar
    26     3     2   ar
    27    28    29   ar
    28    25    17    1
    29    25    24   ar
    30    17    16   ar
    31    38    37   ar
    32    38    44    1
    33     5    14    1
    34     5     6   ar
    35    14    15   ar
    36    29    24   ar
    37    37    41    1
    38     2     8    1
    39     2     1   ar
    40    24    31    1
    41     6     1   ar
    42     1     9    1
    43    44    45    3
    44    16    15   ar
    45    16    21    1
    46    15    19    1
    47    45    46    1
    48    21    22    3
    49    22    23    1
