@<TRIPOS>MOLECULE
mol_data/opt/m06hf/geoms/mol2/6af13hi-12ah12fd.out
 43 46 0 0 0
SMALL
GASTEIGER

@<TRIPOS>ATOM
      1 C          -4.6487   -2.0932   -0.3710 C.ar    1  LIG1        0.0286
      2 C          -3.2640   -2.2610   -0.3468 C.ar    1  LIG1       -0.0401
      3 C          -2.4667   -1.1366   -0.2296 C.ar    1  LIG1       -0.0166
      4 C          -3.0500    0.1319   -0.1415 C.ar    1  LIG1        0.1442
      5 C          -4.4553    0.1978   -0.1728 C.ar    1  LIG1        0.1301
      6 N          -5.2126   -0.8987   -0.2861 N.ar    1  LIG1       -0.2498
      7 H          -1.3865   -1.1937   -0.2039 H       1  LIG1        0.0655
      8 H          -2.8295   -3.2483   -0.4180 H       1  LIG1        0.0634
      9 H          -5.3168   -2.9399   -0.4612 H       1  LIG1        0.0830
     10 O          -2.2363    1.1855   -0.0341 O.3     1  LIG1       -0.5046
     11 H          -2.7250    2.0660    0.0202 H       1  LIG1        0.2922
     12 C          -5.2426    1.4522   -0.0891 C.ar    1  LIG1        0.0902
     13 C          -4.9658    2.8082    0.0316 C.ar    1  LIG1        0.0555
     14 C          -6.1960    3.5172    0.0593 C.ar    1  LIG1       -0.0009
     15 C          -7.1868    2.5572   -0.0481 C.ar    1  LIG1        0.0874
     16 N          -6.5925    1.3376   -0.1341 N.ar    1  LIG1       -0.3488
     17 H          -7.0463    0.4357   -0.2162 H       1  LIG1        0.1661
     18 N          -3.6504    3.3747    0.1230 N.pl3   1  LIG1       -0.3561
     19 H          -3.4727    4.0327   -0.6323 H       1  LIG1        0.1424
     20 H          -3.5107    3.8550    1.0091 H       1  LIG1        0.1424
     21 C          -6.3785    5.0066    0.1971 C.3     1  LIG1       -0.0358
     22 H          -7.1347    5.2304    0.9519 H       1  LIG1        0.0279
     23 H          -6.6858    5.4583   -0.7488 H       1  LIG1        0.0279
     24 H          -5.4413    5.4719    0.5055 H       1  LIG1        0.0279
     25 C          -8.6339    2.6849   -0.0754 C.ar    1  LIG1        0.1541
     26 C          -9.4773    3.7457   -0.2163 C.ar    1  LIG1        0.0071
     27 C         -10.8117    3.2091   -0.1470 C.ar    1  LIG1        0.0749
     28 C         -10.6572    1.8621    0.0180 C.ar    1  LIG1        0.1948
     29 O          -9.3318    1.5410    0.0591 O.2     1  LIG1       -0.4482
     30 H          -9.2045    4.7771   -0.3576 H       1  LIG1        0.0675
     31 N         -11.9945    3.9356   -0.1672 N.pl3   1  LIG1       -0.3549
     32 H         -11.9026    4.8425   -0.6024 H       1  LIG1        0.1424
     33 H         -12.7916    3.4201   -0.5229 H       1  LIG1        0.1424
     34 C         -11.6279    0.7991    0.1406 C.ar    1  LIG1        0.2139
     35 C         -12.8957    0.6705   -0.3332 C.ar    1  LIG1        0.1836
     36 C         -13.3927   -0.5811    0.1746 C.ar    1  LIG1        0.1315
     37 C         -12.3745   -1.1196    0.9011 C.ar    1  LIG1        0.1138
     38 O         -11.3281   -0.2969    0.8920 O.2     1  LIG1       -0.4546
     39 H         -12.2817   -2.0447    1.4417 H       1  LIG1        0.1044
     40 O         -13.5449    1.5571   -1.1297 O.3     1  LIG1       -0.5023
     41 H         -14.4136    1.2170   -1.3761 H       1  LIG1        0.2923
     42 N         -15.7519   -1.4749   -0.3530 N.1     1  LIG1       -0.1906
     43 C         -14.6936   -1.1144   -0.0920 C.1     1  LIG1        0.1060
@<TRIPOS>BOND
     1    41    40    1
     2    40    35    1
     3    23    21    1
     4    19    18    1
     5    32    31    1
     6    33    31    1
     7     9     1    1
     8     8     2    1
     9     1     2   ar
    10     1     6   ar
    11    30    26    1
    12    42    43    3
    13     2     3   ar
    14    35    34   ar
    15    35    36   ar
    16     6     5   ar
    17     3     7    1
    18     3     4   ar
    19    26    27   ar
    20    26    25   ar
    21    17    16    1
    22     5     4   ar
    23     5    12    1
    24    31    27    1
    25    27    28   ar
    26     4    10    1
    27    16    12   ar
    28    16    15   ar
    29    43    36    1
    30    12    13   ar
    31    25    15    1
    32    25    29   ar
    33    15    14   ar
    34    10    11    1
    35    28    29   ar
    36    28    34    1
    37    13    14   ar
    38    13    18    1
    39    14    21    1
    40    18    20    1
    41    34    38   ar
    42    36    37   ar
    43    21    24    1
    44    21    22    1
    45    38    37   ar
    46    37    39    1
