@<TRIPOS>MOLECULE
mol_data/opt/m06hf/geoms/mol2/6af4fl12ff-13ee13fd-4ia12ai-12eh-.out
 92 99 0 0 0
SMALL
GASTEIGER

@<TRIPOS>ATOM
      1 C          -3.5534    0.1430    4.3063 C.ar    1  LIG1        0.0285
      2 C          -2.4119    0.5821    4.9757 C.ar    1  LIG1       -0.0401
      3 C          -2.0042    1.8909    4.7851 C.ar    1  LIG1       -0.0166
      4 C          -2.7342    2.7231    3.9367 C.ar    1  LIG1        0.1428
      5 C          -3.8688    2.1910    3.2988 C.ar    1  LIG1        0.1158
      6 N          -4.2539    0.9279    3.5009 N.ar    1  LIG1       -0.2512
      7 H          -1.1357    2.3071    5.2776 H       1  LIG1        0.0655
      8 H          -1.8664   -0.0858    5.6275 H       1  LIG1        0.0634
      9 H          -3.9168   -0.8696    4.4276 H       1  LIG1        0.0830
     10 O          -2.3386    4.0113    3.8246 O.3     1  LIG1       -0.5046
     11 H          -2.4786    4.3128    2.9075 H       1  LIG1        0.2922
     12 C          -4.3880    3.9384    1.4891 C.ar    1  LIG1        0.1270
     13 C          -5.3049    4.6291    0.7111 C.ar    1  LIG1       -0.0052
     14 C          -4.7924    2.9937    2.4354 C.ar    1  LIG1        0.0488
     15 C          -6.6749    4.3909    0.8489 C.ar    1  LIG1        0.0661
     16 H          -4.9652    5.3531   -0.0213 H       1  LIG1        0.0662
     17 C          -6.1618    2.7528    2.5492 C.ar    1  LIG1       -0.0064
     18 C          -7.0973    3.4334    1.7844 C.ar    1  LIG1        0.1317
     19 H          -6.5047    1.9985    3.2456 H       1  LIG1        0.0662
     20 O          -3.0370    4.1514    1.3229 O.3     1  LIG1       -0.5061
     21 H          -2.8692    4.7654    0.5996 H       1  LIG1        0.2922
     22 O          -8.4281    3.1399    1.9637 O.3     1  LIG1       -0.4944
     23 C          -9.0730    4.0004    2.9022 C.3     1  LIG1        0.0788
     24 H         -10.1051    3.6625    2.9709 H       1  LIG1        0.0660
     25 H          -8.5886    3.9201    3.8775 H       1  LIG1        0.0660
     26 H          -9.0430    5.0342    2.5538 H       1  LIG1        0.0660
     27 C          -7.6019    5.1334   -0.0046 C.ar    1  LIG1        0.1844
     28 C          -7.4147    6.1590   -0.8841 C.ar    1  LIG1        0.2060
     29 C          -8.6914    6.4686   -1.4575 C.ar    1  LIG1        0.2073
     30 C          -9.5774    5.6142   -0.8756 C.ar    1  LIG1        0.1980
     31 O          -8.9218    4.8130   -0.0016 O.2     1  LIG1       -0.4456
     32 O          -6.2611    6.7915   -1.2064 O.3     1  LIG1       -0.5008
     33 H          -6.4630    7.4684   -1.8667 H       1  LIG1        0.2924
     34 O          -8.8062    7.4282   -2.3997 O.3     1  LIG1       -0.5008
     35 H          -9.7383    7.6263   -2.5865 H       1  LIG1        0.2924
     36 C         -10.9928    5.3363   -1.0031 C.ar    1  LIG1        0.1032
     37 C         -12.0324    6.0177   -1.6108 C.ar    1  LIG1        0.0691
     38 C         -13.2157    5.2335   -1.4142 C.ar    1  LIG1        0.0675
     39 C         -12.8466    4.1207   -0.6842 C.ar    1  LIG1        0.0838
     40 N         -11.5015    4.2040   -0.4501 N.ar    1  LIG1       -0.3485
     41 H         -10.9466    3.5669    0.1089 H       1  LIG1        0.1661
     42 C         -11.9338    7.2714   -2.2908 C.1     1  LIG1       -0.0662
     43 C         -11.8632    8.3315   -2.8602 C.1     1  LIG1       -0.1138
     44 H         -11.8431    9.2759   -3.3546 H       1  LIG1        0.1232
     45 C         -14.5284    5.5279   -1.8964 C.1     1  LIG1       -0.0662
     46 C         -15.6290    5.7741   -2.3079 C.1     1  LIG1       -0.1138
     47 H         -16.6069    5.9930   -2.6680 H       1  LIG1        0.1232
     48 C         -13.6558    3.0002   -0.2190 C.ar    1  LIG1        0.1079
     49 C         -14.8167    2.9880    0.5146 C.ar    1  LIG1        0.1615
     50 C         -15.1939    1.6242    0.6888 C.ar    1  LIG1        0.1189
     51 C         -14.2427    0.8353    0.0512 C.ar    1  LIG1        0.0684
     52 N         -13.3363    1.6811   -0.4821 N.ar    1  LIG1       -0.3490
     53 H         -12.5370    1.3784   -1.0202 H       1  LIG1        0.1661
     54 O         -15.4488    4.0807    0.9871 O.3     1  LIG1       -0.5034
     55 H         -16.2736    3.8269    1.4182 H       1  LIG1        0.2923
     56 N         -17.3458    0.9223    1.9198 N.1     1  LIG1       -0.1907
     57 C         -16.3808    1.1984    1.3592 C.1     1  LIG1        0.1050
     58 C         -14.2050   -1.5332    0.9188 C.ar    1  LIG1       -0.0406
     59 C         -14.0985   -2.8922    0.6334 C.ar    1  LIG1       -0.0475
     60 C         -14.1530   -0.6279   -0.1538 C.ar    1  LIG1        0.0026
     61 C         -13.9361   -3.3606   -0.6714 C.ar    1  LIG1        0.0176
     62 H         -14.1343   -3.5984    1.4541 H       1  LIG1        0.0627
     63 C         -13.9920   -1.0935   -1.4631 C.ar    1  LIG1       -0.0517
     64 C         -13.8796   -2.4493   -1.7284 C.ar    1  LIG1       -0.0504
     65 H         -13.9815   -0.3824   -2.2804 H       1  LIG1        0.0624
     66 C         -14.3548   -1.0833    2.3610 C.3     1  LIG1       -0.0391
     67 H         -13.9114   -1.8262    3.0230 H       1  LIG1        0.0278
     68 H         -15.4096   -0.9702    2.6172 H       1  LIG1        0.0278
     69 H         -13.8591   -0.1256    2.5211 H       1  LIG1        0.0278
     70 H         -13.7573   -2.8087   -2.7407 H       1  LIG1        0.0625
     71 C         -13.8133   -4.8005   -0.9406 C.ar    1  LIG1        0.1361
     72 C         -13.7893   -5.9081   -0.1474 C.ar    1  LIG1       -0.0122
     73 C         -13.6167   -7.0390   -1.0158 C.ar    1  LIG1       -0.0010
     74 C         -13.5653   -6.5119   -2.2721 C.ar    1  LIG1        0.1747
     75 O         -13.6798   -5.1651   -2.2328 O.2     1  LIG1       -0.4514
     76 H         -13.8631   -5.9381    0.9272 H       1  LIG1        0.0658
     77 C         -13.4707   -8.4817   -0.6083 C.3     1  LIG1       -0.0360
     78 H         -12.9834   -9.0489   -1.4005 H       1  LIG1        0.0279
     79 H         -14.4479   -8.9281   -0.4201 H       1  LIG1        0.0279
     80 H         -12.8708   -8.5444    0.2997 H       1  LIG1        0.0279
     81 C         -13.4013   -7.1198   -3.5838 C.ar    1  LIG1        0.1871
     82 C         -13.8657   -8.2923   -4.1146 C.ar    1  LIG1        0.0940
     83 C         -13.3438   -8.3535   -5.4633 C.ar    1  LIG1        0.0792
     84 C         -12.6294   -7.2126   -5.6280 C.ar    1  LIG1        0.1145
     85 O         -12.6646   -6.4675   -4.4899 O.2     1  LIG1       -0.4567
     86 H         -12.0667   -6.8120   -6.4506 H       1  LIG1        0.1049
     87 C         -14.7568   -9.2470   -3.5347 C.1     1  LIG1       -0.0639
     88 C         -15.5154  -10.0710   -3.0957 C.1     1  LIG1       -0.1137
     89 H         -16.1905  -10.7927   -2.6973 H       1  LIG1        0.1232
     90 N         -13.5444   -9.4239   -6.3350 N.pl3   1  LIG1       -0.3546
     91 H         -14.3521   -9.9794   -6.0808 H       1  LIG1        0.1424
     92 H         -13.5695   -9.1609   -7.3108 H       1  LIG1        0.1424
@<TRIPOS>BOND
     1    92    90    1
     2    86    84    1
     3    90    91    1
     4    90    83    1
     5    84    83   ar
     6    84    85   ar
     7    83    82   ar
     8    85    81   ar
     9    82    81   ar
    10    82    87    1
    11    81    74    1
    12    87    88    3
    13    44    43    1
    14    88    89    1
    15    43    42    3
    16    70    64    1
    17    47    46    1
    18    35    34    1
    19    34    29    1
    20    46    45    3
    21    42    37    1
    22    65    63    1
    23    74    75   ar
    24    74    73   ar
    25    75    71   ar
    26    45    38    1
    27    33    32    1
    28    64    63   ar
    29    64    61   ar
    30    37    38   ar
    31    37    36   ar
    32    63    60   ar
    33    29    28   ar
    34    29    30   ar
    35    38    39   ar
    36    78    77    1
    37    32    28    1
    38    53    52    1
    39    73    77    1
    40    73    72   ar
    41    36    30    1
    42    36    40   ar
    43    71    61    1
    44    71    72   ar
    45    28    27   ar
    46    30    31   ar
    47    39    40   ar
    48    39    48    1
    49    61    59   ar
    50    77    79    1
    51    77    80    1
    52    52    48   ar
    53    52    51   ar
    54    40    41    1
    55    48    49   ar
    56    60    51    1
    57    60    58   ar
    58    72    76    1
    59    16    13    1
    60    27    31   ar
    61    27    15    1
    62    51    50   ar
    63    49    50   ar
    64    49    54    1
    65    21    20    1
    66    59    58   ar
    67    59    62    1
    68    50    57    1
    69    13    15   ar
    70    13    12   ar
    71    15    18   ar
    72    58    66    1
    73    54    55    1
    74    20    12    1
    75    57    56    3
    76    12    14   ar
    77    18    22    1
    78    18    17   ar
    79    22    23    1
    80    66    69    1
    81    66    68    1
    82    66    67    1
    83    14    17   ar
    84    14     5    1
    85    17    19    1
    86    26    23    1
    87    23    24    1
    88    23    25    1
    89    11    10    1
    90     5     6   ar
    91     5     4   ar
    92     6     1   ar
    93    10     4    1
    94     4     3   ar
    95     1     9    1
    96     1     2   ar
    97     3     2   ar
    98     3     7    1
    99     2     8    1
