@<TRIPOS>MOLECULE
mol_data/opt/m06hf/geoms/mol2/6af4dd13la-12ha-.out
 45 48 0 0 0
SMALL
GASTEIGER

@<TRIPOS>ATOM
      1 C          -4.1818   -2.3041   -1.1864 C.ar    1  LIG1        0.0285
      2 C          -3.0285   -2.5660   -0.4487 C.ar    1  LIG1       -0.0401
      3 C          -2.5991   -1.6095    0.4586 C.ar    1  LIG1       -0.0166
      4 C          -3.3135   -0.4217    0.5808 C.ar    1  LIG1        0.1427
      5 C          -4.4408   -0.2337   -0.2290 C.ar    1  LIG1        0.1135
      6 N          -4.8681   -1.1740   -1.0739 N.ar    1  LIG1       -0.2513
      7 H          -1.7357   -1.7617    1.0932 H       1  LIG1        0.0655
      8 H          -2.4990   -3.4999   -0.5736 H       1  LIG1        0.0634
      9 H          -4.5678   -3.0313   -1.8898 H       1  LIG1        0.0830
     10 O          -2.9675    0.4909    1.5415 O.3     1  LIG1       -0.5046
     11 H          -2.3046    1.1075    1.1979 H       1  LIG1        0.2922
     12 C          -4.7971    2.3066   -0.1678 C.ar    1  LIG1        0.0617
     13 C          -5.6283    3.4179   -0.1233 C.ar    1  LIG1       -0.0332
     14 C          -5.2891    0.9931   -0.1596 C.ar    1  LIG1        0.0225
     15 C          -7.0254    3.2790   -0.0742 C.ar    1  LIG1        0.0205
     16 H          -5.1961    4.4068   -0.1336 H       1  LIG1        0.0637
     17 C          -6.6682    0.8459   -0.1437 C.ar    1  LIG1       -0.0332
     18 C          -7.5136    1.9556   -0.0969 C.ar    1  LIG1        0.0617
     19 H          -7.0898   -0.1497   -0.1760 H       1  LIG1        0.0637
     20 N          -2.2398    2.7348   -0.3538 N.1     1  LIG1       -0.1908
     21 C          -3.3708    2.5489   -0.2752 C.1     1  LIG1        0.0998
     22 N         -10.0550    1.4203   -0.0537 N.1     1  LIG1       -0.1908
     23 C          -8.9320    1.6637   -0.0760 C.1     1  LIG1        0.0998
     24 C          -7.8577    4.4780   -0.0127 C.ar    1  LIG1        0.0905
     25 C          -7.4734    5.8188   -0.0682 C.ar    1  LIG1        0.1460
     26 C          -8.6238    6.6294    0.0521 C.ar    1  LIG1        0.0091
     27 C          -9.6940    5.7539    0.1753 C.ar    1  LIG1        0.0879
     28 N          -9.2293    4.4889    0.1335 N.ar    1  LIG1       -0.3487
     29 H          -9.8303    3.6786    0.2075 H       1  LIG1        0.1661
     30 O          -6.1894    6.2281   -0.2140 O.3     1  LIG1       -0.4930
     31 C          -5.9722    7.6273   -0.1315 C.3     1  LIG1        0.0789
     32 H          -4.9026    7.7738   -0.2517 H       1  LIG1        0.0660
     33 H          -6.5107    8.1409   -0.9310 H       1  LIG1        0.0660
     34 H          -6.2971    8.0028    0.8410 H       1  LIG1        0.0660
     35 H          -8.6856    7.7026    0.1062 H       1  LIG1        0.0677
     36 C         -11.1088    6.0346    0.3180 C.ar    1  LIG1        0.1715
     37 C         -11.8467    7.1429    0.0302 C.ar    1  LIG1        0.0724
     38 C         -13.2022    6.8126    0.3922 C.ar    1  LIG1       -0.0025
     39 C         -13.1647    5.5378    0.8486 C.ar    1  LIG1        0.0945
     40 O         -11.9117    5.0525    0.8072 O.2     1  LIG1       -0.4596
     41 H         -13.9241    4.8741    1.2217 H       1  LIG1        0.1030
     42 N         -11.3725    8.3535   -0.4895 N.pl3   1  LIG1       -0.3550
     43 H         -10.6352    8.2151   -1.1727 H       1  LIG1        0.1424
     44 H         -12.1106    8.9255   -0.8789 H       1  LIG1        0.1424
     45 H         -14.0692    7.4465    0.3110 H       1  LIG1        0.0668
@<TRIPOS>BOND
     1     9     1    1
     2     1     6   ar
     3     1     2   ar
     4    43    42    1
     5     6     5   ar
     6    33    31    1
     7    44    42    1
     8     8     2    1
     9    42    37    1
    10     2     3   ar
    11    20    21    3
    12    21    12    1
    13    32    31    1
    14     5    14    1
    15     5     4   ar
    16    30    31    1
    17    30    25    1
    18    19    17    1
    19    12    14   ar
    20    12    13   ar
    21    14    17   ar
    22    17    18   ar
    23    16    13    1
    24    31    34    1
    25    13    15   ar
    26    18    23    1
    27    18    15   ar
    28    23    22    3
    29    15    24    1
    30    25    24   ar
    31    25    26   ar
    32    24    28   ar
    33    37    36   ar
    34    37    38   ar
    35    26    35    1
    36    26    27   ar
    37    28    27   ar
    38    28    29    1
    39    27    36    1
    40    45    38    1
    41    36    40   ar
    42    38    39   ar
    43     3     4   ar
    44     3     7    1
    45     4    10    1
    46    40    39   ar
    47    39    41    1
    48    11    10    1
