@<TRIPOS>MOLECULE
mol_data/opt/m06hf/geoms/mol2/6af6af-6af6af-.out
 42 45 0 0 0
SMALL
GASTEIGER

@<TRIPOS>ATOM
      1 C          -3.9808   -1.9878    0.9594 C.ar    1  LIG1        0.0285
      2 C          -2.8486   -2.1572    0.1617 C.ar    1  LIG1       -0.0401
      3 C          -2.5241   -1.1638   -0.7475 C.ar    1  LIG1       -0.0166
      4 C          -3.3226   -0.0252   -0.8119 C.ar    1  LIG1        0.1428
      5 C          -4.4111    0.0836    0.0649 C.ar    1  LIG1        0.1138
      6 N          -4.7365   -0.8992    0.9054 N.ar    1  LIG1       -0.2513
      7 H          -1.6801   -1.2429   -1.4196 H       1  LIG1        0.0655
      8 H          -2.2511   -3.0544    0.2443 H       1  LIG1        0.0634
      9 H          -4.2839   -2.7505    1.6652 H       1  LIG1        0.0830
     10 O          -3.0058    0.9206   -1.7326 O.3     1  LIG1       -0.5046
     11 H          -3.7594    1.5019   -1.8948 H       1  LIG1        0.2922
     12 C          -4.8134    2.5872   -0.0774 C.ar    1  LIG1        0.0378
     13 C          -5.2942    1.2859    0.0783 C.ar    1  LIG1        0.0255
     14 C          -6.6581    1.1286    0.3134 C.ar    1  LIG1       -0.0073
     15 C          -7.4814    2.2428    0.3444 C.ar    1  LIG1        0.1434
     16 C          -6.9178    3.5177    0.1323 C.ar    1  LIG1        0.1138
     17 N          -5.6083    3.6514   -0.0533 N.ar    1  LIG1       -0.2506
     18 H          -7.0524    0.1334    0.4887 H       1  LIG1        0.0662
     19 H          -3.7530    2.7823   -0.1917 H       1  LIG1        0.0836
     20 O          -8.8137    2.1425    0.5807 O.3     1  LIG1       -0.5046
     21 H          -9.0503    1.2367    0.8082 H       1  LIG1        0.2922
     22 C          -9.0823    4.8527   -0.1255 C.ar    1  LIG1        0.0378
     23 C          -7.7090    4.7842    0.1462 C.ar    1  LIG1        0.0255
     24 C          -7.0333    5.9769    0.3842 C.ar    1  LIG1       -0.0073
     25 C          -7.7387    7.1720    0.3901 C.ar    1  LIG1        0.1434
     26 C          -9.1222    7.1367    0.1651 C.ar    1  LIG1        0.1138
     27 N          -9.7519    5.9977   -0.1196 N.ar    1  LIG1       -0.2506
     28 H          -5.9636    5.9823    0.5456 H       1  LIG1        0.0662
     29 H          -9.6490    3.9631   -0.3539 H       1  LIG1        0.0836
     30 O          -7.0450    8.3204    0.6027 O.3     1  LIG1       -0.5046
     31 H          -7.5586    9.0824    0.3055 H       1  LIG1        0.2922
     32 C          -9.7552    9.4099    1.0882 C.ar    1  LIG1        0.0371
     33 C          -9.9581    8.3729    0.1772 C.ar    1  LIG1        0.0255
     34 C         -11.0189    8.4796   -0.7259 C.ar    1  LIG1       -0.0079
     35 C         -11.7999    9.6214   -0.6956 C.ar    1  LIG1        0.1355
     36 C         -11.4988   10.6216    0.2395 C.ar    1  LIG1        0.0690
     37 N         -10.5103   10.5115    1.1099 N.ar    1  LIG1       -0.2590
     38 H         -11.2131    7.6630   -1.4124 H       1  LIG1        0.0661
     39 H         -12.1044   11.5194    0.2613 H       1  LIG1        0.0867
     40 H          -8.9860    9.3396    1.8490 H       1  LIG1        0.0836
     41 O         -12.8521    9.8433   -1.5227 O.3     1  LIG1       -0.5052
     42 H         -12.9786    9.1005   -2.1228 H       1  LIG1        0.2922
@<TRIPOS>BOND
     1    42    41    1
     2    11    10    1
     3    10     4    1
     4    41    35    1
     5     7     3    1
     6    38    34    1
     7     4     3   ar
     8     4     5   ar
     9     3     2   ar
    10    34    35   ar
    11    34    33   ar
    12    35    36   ar
    13    29    22    1
    14    19    12    1
    15    22    27   ar
    16    22    23   ar
    17    27    26   ar
    18    12    17   ar
    19    12    13   ar
    20    17    16   ar
    21     5    13    1
    22     5     6   ar
    23    13    14   ar
    24    16    23    1
    25    16    15   ar
    26    23    24   ar
    27     2     8    1
    28     2     1   ar
    29    26    33    1
    30    26    25   ar
    31    33    32   ar
    32    36    39    1
    33    36    37   ar
    34    31    30    1
    35    14    15   ar
    36    14    18    1
    37    15    20    1
    38    24    25   ar
    39    24    28    1
    40    25    30    1
    41    20    21    1
    42     6     1   ar
    43     1     9    1
    44    32    37   ar
    45    32    40    1
