@<TRIPOS>MOLECULE
mol_data/opt/m06hf/geoms/mol2/6af6af-4af6af.out
 43 46 0 0 0
SMALL
GASTEIGER

@<TRIPOS>ATOM
      1 C          -3.9596   -1.9365   -1.1308 C.ar    1  LIG1        0.0285
      2 C          -2.8305   -2.1505   -0.3401 C.ar    1  LIG1       -0.0401
      3 C          -2.5125   -1.2123    0.6285 C.ar    1  LIG1       -0.0166
      4 C          -3.3142   -0.0818    0.7578 C.ar    1  LIG1        0.1428
      5 C          -4.3989    0.0776   -0.1164 C.ar    1  LIG1        0.1138
      6 N          -4.7176   -0.8541   -1.0156 N.ar    1  LIG1       -0.2513
      7 H          -1.6710   -1.3297    1.2982 H       1  LIG1        0.0655
      8 H          -2.2296   -3.0391   -0.4739 H       1  LIG1        0.0634
      9 H          -4.2578   -2.6562   -1.8822 H       1  LIG1        0.0830
     10 O          -3.0054    0.8070    1.7362 O.3     1  LIG1       -0.5046
     11 H          -3.7618    1.3751    1.9290 H       1  LIG1        0.2922
     12 C          -4.8006    2.5688    0.1662 C.ar    1  LIG1        0.0378
     13 C          -5.2803    1.2794   -0.0675 C.ar    1  LIG1        0.0255
     14 C          -6.6414    1.1412   -0.3304 C.ar    1  LIG1       -0.0073
     15 C          -7.4615    2.2571   -0.3135 C.ar    1  LIG1        0.1433
     16 C          -6.9008    3.5203   -0.0240 C.ar    1  LIG1        0.1124
     17 N          -5.5932    3.6348    0.1885 N.ar    1  LIG1       -0.2507
     18 H          -7.0344    0.1580   -0.5673 H       1  LIG1        0.0662
     19 H          -3.7417    2.7546    0.3073 H       1  LIG1        0.0836
     20 O          -8.7918    2.1624   -0.5780 O.3     1  LIG1       -0.5046
     21 H          -9.0131    1.2669   -0.8561 H       1  LIG1        0.2922
     22 C          -6.9996    5.9922   -0.1758 C.ar    1  LIG1       -0.0516
     23 C          -7.6850    7.1968   -0.1213 C.ar    1  LIG1       -0.0499
     24 C          -7.6866    4.7920    0.0225 C.ar    1  LIG1        0.0074
     25 C          -9.0566    7.2507    0.1377 C.ar    1  LIG1        0.0252
     26 H          -7.1482    8.1266   -0.2625 H       1  LIG1        0.0625
     27 C          -9.0558    4.8256    0.2911 C.ar    1  LIG1       -0.0103
     28 C          -9.7301    6.0424    0.3503 C.ar    1  LIG1        0.1252
     29 H          -9.6029    3.9067    0.4521 H       1  LIG1        0.0661
     30 H          -5.9349    5.9634   -0.3571 H       1  LIG1        0.0624
     31 O         -11.0673    6.0947    0.6073 O.3     1  LIG1       -0.5061
     32 H         -11.4268    5.2052    0.6866 H       1  LIG1        0.2922
     33 C         -10.6723    8.8784    1.1946 C.ar    1  LIG1        0.0356
     34 C          -9.7659    8.5601    0.1732 C.ar    1  LIG1        0.0072
     35 C          -9.5065    9.5238   -0.7955 C.ar    1  LIG1       -0.0094
     36 C         -10.1474   10.7548   -0.7056 C.ar    1  LIG1        0.1354
     37 C         -11.0246   10.9751    0.3527 C.ar    1  LIG1        0.0690
     38 N         -11.2793   10.0547    1.2784 N.ar    1  LIG1       -0.2590
     39 H          -8.8368    9.3335   -1.6245 H       1  LIG1        0.0661
     40 H         -11.5379   11.9275    0.4520 H       1  LIG1        0.0867
     41 H         -10.9034    8.1499    1.9599 H       1  LIG1        0.0836
     42 O          -9.8899   11.6892   -1.6599 O.3     1  LIG1       -0.5052
     43 H         -10.4109   12.4844   -1.5041 H       1  LIG1        0.2922
@<TRIPOS>BOND
     1     9     1    1
     2    42    43    1
     3    42    36    1
     4    39    35    1
     5     1     6   ar
     6     1     2   ar
     7     6     5   ar
     8    21    20    1
     9    35    36   ar
    10    35    34   ar
    11    36    37   ar
    12    20    15    1
    13    18    14    1
    14     8     2    1
    15    30    22    1
    16     2     3   ar
    17    14    15   ar
    18    14    13   ar
    19    15    16   ar
    20    26    23    1
    21    22    23   ar
    22    22    24   ar
    23    23    25   ar
    24     5    13    1
    25     5     4   ar
    26    13    12   ar
    27    16    24    1
    28    16    17   ar
    29    24    27   ar
    30    25    34    1
    31    25    28   ar
    32    12    17   ar
    33    12    19    1
    34    34    33   ar
    35    27    28   ar
    36    27    29    1
    37    28    31    1
    38    37    40    1
    39    37    38   ar
    40    31    32    1
    41     3     4   ar
    42     3     7    1
    43     4    10    1
    44    33    38   ar
    45    33    41    1
    46    10    11    1
