@<TRIPOS>MOLECULE
mol_data/opt/m06hf/geoms/mol2/6af6af6af6af.out
 42 45 0 0 0
SMALL
GASTEIGER

@<TRIPOS>ATOM
      1 C          -4.1369   -1.8745   -1.4391 C.ar    1  LIG1        0.0285
      2 C          -3.0539   -2.2294   -0.6352 C.ar    1  LIG1       -0.0401
      3 C          -2.6994   -1.3916    0.4104 C.ar    1  LIG1       -0.0166
      4 C          -3.4243   -0.2197    0.6029 C.ar    1  LIG1        0.1428
      5 C          -4.4696    0.0797   -0.2821 C.ar    1  LIG1        0.1138
      6 N          -4.8224   -0.7524   -1.2618 N.ar    1  LIG1       -0.2513
      7 H          -1.8894   -1.6188    1.0906 H       1  LIG1        0.0655
      8 H          -2.5153   -3.1483   -0.8194 H       1  LIG1        0.0634
      9 H          -4.4590   -2.5119   -2.2526 H       1  LIG1        0.0830
     10 O          -3.0850    0.5776    1.6494 O.3     1  LIG1       -0.5046
     11 H          -3.8133    1.1729    1.8680 H       1  LIG1        0.2922
     12 C          -6.6568    1.2771   -0.3618 C.ar    1  LIG1        0.0378
     13 C          -5.2723    1.3296   -0.1483 C.ar    1  LIG1        0.0255
     14 C          -4.7054    2.5621    0.1612 C.ar    1  LIG1       -0.0073
     15 C          -5.5289    3.6823    0.2446 C.ar    1  LIG1        0.1434
     16 C          -6.8969    3.5350   -0.0140 C.ar    1  LIG1        0.1138
     17 N          -7.4348    2.3445   -0.2893 N.ar    1  LIG1       -0.2506
     18 H          -3.6403    2.6892    0.3169 H       1  LIG1        0.0662
     19 H          -7.1234    0.3328   -0.6094 H       1  LIG1        0.0836
     20 O          -4.9549    4.8662    0.5769 O.3     1  LIG1       -0.5046
     21 H          -5.6275    5.4969    0.8637 H       1  LIG1        0.2922
     22 C          -9.0883    4.5372    0.6351 C.ar    1  LIG1        0.0378
     23 C          -7.8294    4.6968    0.0409 C.ar    1  LIG1        0.0255
     24 C          -7.5081    5.9437   -0.4876 C.ar    1  LIG1       -0.0073
     25 C          -8.4417    6.9732   -0.4028 C.ar    1  LIG1        0.1434
     26 C          -9.6854    6.7097    0.1855 C.ar    1  LIG1        0.1138
     27 N          -9.9763    5.5158    0.7053 N.ar    1  LIG1       -0.2506
     28 H          -6.5649    6.1374   -0.9860 H       1  LIG1        0.0662
     29 H          -9.3679    3.5771    1.0486 H       1  LIG1        0.0836
     30 O          -8.0923    8.1879   -0.8949 O.3     1  LIG1       -0.5046
     31 H          -8.6952    8.8680   -0.5680 H       1  LIG1        0.2922
     32 C         -11.4730    7.8830    1.4712 C.ar    1  LIG1        0.0371
     33 C         -10.7331    7.7658    0.2881 C.ar    1  LIG1        0.0255
     34 C         -11.0238    8.6295   -0.7654 C.ar    1  LIG1       -0.0079
     35 C         -12.0221    9.5832   -0.5847 C.ar    1  LIG1        0.1355
     36 C         -12.6892    9.6300    0.6374 C.ar    1  LIG1        0.0690
     37 N         -12.4214    8.7942    1.6370 N.ar    1  LIG1       -0.2590
     38 H         -10.5282    8.5588   -1.7270 H       1  LIG1        0.0661
     39 H         -13.4714   10.3636    0.8079 H       1  LIG1        0.0867
     40 H         -11.2802    7.2038    2.2916 H       1  LIG1        0.0836
     41 O         -12.3012   10.4211   -1.6145 O.3     1  LIG1       -0.5052
     42 H         -13.0200   11.0200   -1.3850 H       1  LIG1        0.2922
@<TRIPOS>BOND
     1     9     1    1
     2    38    34    1
     3    41    42    1
     4    41    35    1
     5     1     6   ar
     6     1     2   ar
     7     6     5   ar
     8    28    24    1
     9    30    31    1
    10    30    25    1
    11     8     2    1
    12    34    35   ar
    13    34    33   ar
    14     2     3   ar
    15    19    12    1
    16    35    36   ar
    17    24    25   ar
    18    24    23   ar
    19    25    26   ar
    20    12    17   ar
    21    12    13   ar
    22    17    16   ar
    23     5    13    1
    24     5     4   ar
    25    13    14   ar
    26    16    23    1
    27    16    15   ar
    28    23    22   ar
    29    14    15   ar
    30    14    18    1
    31    26    33    1
    32    26    27   ar
    33    15    20    1
    34    33    32   ar
    35     3     4   ar
    36     3     7    1
    37    20    21    1
    38     4    10    1
    39    22    27   ar
    40    22    29    1
    41    36    39    1
    42    36    37   ar
    43    32    37   ar
    44    32    40    1
    45    10    11    1
