@<TRIPOS>MOLECULE
mol_data/opt/m06hf/geoms/mol2/6af6af-6af.out
 32 34 0 0 0
SMALL
GASTEIGER

@<TRIPOS>ATOM
      1 C          -4.3403   -2.0225    0.8450 C.ar    1  LIG1        0.0285
      2 C          -3.0314   -2.1355    0.3768 C.ar    1  LIG1       -0.0401
      3 C          -2.4677   -1.0555   -0.2832 C.ar    1  LIG1       -0.0166
      4 C          -3.2182    0.1077   -0.4300 C.ar    1  LIG1        0.1428
      5 C          -4.5075    0.1509    0.1191 C.ar    1  LIG1        0.1138
      6 N          -5.0526   -0.9111    0.7145 N.ar    1  LIG1       -0.2513
      7 H          -1.4699   -1.0833   -0.7003 H       1  LIG1        0.0655
      8 H          -2.4791   -3.0545    0.5142 H       1  LIG1        0.0634
      9 H          -4.8274   -2.8510    1.3429 H       1  LIG1        0.0830
     10 O          -2.6602    1.1425   -1.1090 O.3     1  LIG1       -0.5046
     11 H          -3.3416    1.7575   -1.4092 H       1  LIG1        0.2922
     12 C          -4.8563    2.6668    0.1633 C.ar    1  LIG1        0.0378
     13 C          -5.3606    1.3714    0.0367 C.ar    1  LIG1        0.0255
     14 C          -6.7394    1.2305   -0.1046 C.ar    1  LIG1       -0.0073
     15 C          -7.5431    2.3576   -0.1529 C.ar    1  LIG1        0.1434
     16 C          -6.9437    3.6324   -0.0678 C.ar    1  LIG1        0.1138
     17 N          -5.6306    3.7452    0.1046 N.ar    1  LIG1       -0.2506
     18 H          -7.1652    0.2340   -0.1512 H       1  LIG1        0.0662
     19 H          -3.8032    2.8417    0.3528 H       1  LIG1        0.0836
     20 O          -8.8917    2.2700   -0.2696 O.3     1  LIG1       -0.5046
     21 H          -9.1798    1.3519   -0.2185 H       1  LIG1        0.2922
     22 C          -8.9683    5.0499   -0.7138 C.ar    1  LIG1        0.0371
     23 C          -7.7110    4.9141   -0.1108 C.ar    1  LIG1        0.0255
     24 C          -7.1198    6.0454    0.4472 C.ar    1  LIG1       -0.0079
     25 C          -7.8071    7.2493    0.4013 C.ar    1  LIG1        0.1355
     26 C          -9.0585    7.2814   -0.2130 C.ar    1  LIG1        0.0690
     27 N          -9.6173    6.2096   -0.7607 N.ar    1  LIG1       -0.2590
     28 H          -6.1404    5.9893    0.9026 H       1  LIG1        0.0661
     29 H          -9.6205    8.2099   -0.2660 H       1  LIG1        0.0867
     30 H          -9.4585    4.2054   -1.1721 H       1  LIG1        0.0836
     31 O          -7.2321    8.3500    0.9554 O.3     1  LIG1       -0.5052
     32 H          -7.8027    9.1192    0.8505 H       1  LIG1        0.2922
@<TRIPOS>BOND
     1    11    10    1
     2    30    22    1
     3    10     4    1
     4    27    22   ar
     5    27    26   ar
     6    22    23   ar
     7     7     3    1
     8     4     3   ar
     9     4     5   ar
    10     3     2   ar
    11    20    21    1
    12    20    15    1
    13    29    26    1
    14    26    25   ar
    15    15    14   ar
    16    15    16   ar
    17    18    14    1
    18    23    16    1
    19    23    24   ar
    20    14    13   ar
    21    16    17   ar
    22    13     5    1
    23    13    12   ar
    24    17    12   ar
    25     5     6   ar
    26    12    19    1
    27     2     8    1
    28     2     1   ar
    29    25    24   ar
    30    25    31    1
    31    24    28    1
    32     6     1   ar
    33     1     9    1
    34    32    31    1
