@<TRIPOS>MOLECULE
mol_data/opt/m06hf/geoms/mol2/6af6af6af-6af.out
 42 45 0 0 0
SMALL
GASTEIGER

@<TRIPOS>ATOM
      1 C          -4.4062   -2.2305   -0.0047 C.ar    1  LIG1        0.0285
      2 C          -3.0271   -2.2515    0.2042 C.ar    1  LIG1       -0.0401
      3 C          -2.3628   -1.0479    0.3787 C.ar    1  LIG1       -0.0166
      4 C          -3.0942    0.1345    0.3202 C.ar    1  LIG1        0.1428
      5 C          -4.4701    0.0623    0.0629 C.ar    1  LIG1        0.1138
      6 N          -5.1027   -1.1031   -0.0698 N.ar    1  LIG1       -0.2513
      7 H          -1.3000   -0.9910    0.5724 H       1  LIG1        0.0655
      8 H          -2.4953   -3.1919    0.2425 H       1  LIG1        0.0634
      9 H          -4.9644   -3.1497   -0.1264 H       1  LIG1        0.0830
     10 O          -2.4357    1.3047    0.5221 O.3     1  LIG1       -0.5046
     11 H          -3.0598    2.0079    0.7422 H       1  LIG1        0.2922
     12 C          -6.5962    1.2940    0.5109 C.ar    1  LIG1        0.0378
     13 C          -5.3066    1.2928   -0.0381 C.ar    1  LIG1        0.0255
     14 C          -4.8825    2.4365   -0.7074 C.ar    1  LIG1       -0.0073
     15 C          -5.7286    3.5415   -0.7642 C.ar    1  LIG1        0.1434
     16 C          -6.9732    3.4712   -0.1265 C.ar    1  LIG1        0.1138
     17 N          -7.3929    2.3485    0.4640 N.ar    1  LIG1       -0.2506
     18 H          -3.9331    2.4836   -1.2285 H       1  LIG1        0.0662
     19 H          -6.9729    0.4009    0.9919 H       1  LIG1        0.0836
     20 O          -5.3010    4.6279   -1.4553 O.3     1  LIG1       -0.5046
     21 H          -6.0470    5.1944   -1.6912 H       1  LIG1        0.2922
     22 C          -7.5096    5.9482    0.0150 C.ar    1  LIG1        0.0378
     23 C          -7.9214    4.6209   -0.1161 C.ar    1  LIG1        0.0255
     24 C          -9.2915    4.3740   -0.1794 C.ar    1  LIG1       -0.0073
     25 C         -10.1792    5.4368   -0.1501 C.ar    1  LIG1        0.1434
     26 C          -9.6734    6.7517   -0.0669 C.ar    1  LIG1        0.1138
     27 N          -8.3655    6.9651    0.0314 N.ar    1  LIG1       -0.2506
     28 H          -9.6416    3.3487   -0.2288 H       1  LIG1        0.0662
     29 H          -6.4628    6.1994    0.1441 H       1  LIG1        0.0836
     30 O         -11.5219    5.2524   -0.1868 O.3     1  LIG1       -0.5046
     31 H         -11.7416    4.3157   -0.1341 H       1  LIG1        0.2922
     32 C         -11.8161    8.0208   -0.6147 C.ar    1  LIG1        0.0371
     33 C         -10.5426    7.9659   -0.0339 C.ar    1  LIG1        0.0255
     34 C         -10.0381    9.1165    0.5670 C.ar    1  LIG1       -0.0079
     35 C         -10.8252   10.2591    0.5839 C.ar    1  LIG1        0.1355
     36 C         -12.0837   10.2126   -0.0143 C.ar    1  LIG1        0.0690
     37 N         -12.5599    9.1225   -0.6032 N.ar    1  LIG1       -0.2590
     38 H          -9.0502    9.1245    1.0069 H       1  LIG1        0.0661
     39 H         -12.7217   11.0921   -0.0192 H       1  LIG1        0.0867
     40 H         -12.2402    7.1574   -1.1039 H       1  LIG1        0.0836
     41 O         -10.3352   11.3788    1.1796 O.3     1  LIG1       -0.5052
     42 H         -10.9741   12.0981    1.1276 H       1  LIG1        0.2922
@<TRIPOS>BOND
     1    21    20    1
     2    20    15    1
     3    18    14    1
     4    40    32    1
     5    15    14   ar
     6    15    16   ar
     7    14    13   ar
     8    32    37   ar
     9    32    33   ar
    10    37    36   ar
    11    28    24    1
    12    30    25    1
    13    30    31    1
    14    24    25   ar
    15    24    23   ar
    16    25    26   ar
    17    16    23    1
    18    16    17   ar
    19     9     1    1
    20    23    22   ar
    21     6     1   ar
    22     6     5   ar
    23    26    33    1
    24    26    27   ar
    25    13     5    1
    26    13    12   ar
    27    33    34   ar
    28    39    36    1
    29    36    35   ar
    30     1     2   ar
    31    22    27   ar
    32    22    29    1
    33     5     4   ar
    34     2     8    1
    35     2     3   ar
    36     4     3   ar
    37     4    10    1
    38     3     7    1
    39    17    12   ar
    40    12    19    1
    41    10    11    1
    42    34    35   ar
    43    34    38    1
    44    35    41    1
    45    42    41    1
