@<TRIPOS>MOLECULE
mol_data/opt/m06hf/geoms/mol2/6af6af6af.out
 32 34 0 0 0
SMALL
GASTEIGER

@<TRIPOS>ATOM
      1 C          -4.3459   -1.9738   -1.0435 C.ar    1  LIG1        0.0285
      2 C          -3.0970   -2.1666   -0.4538 C.ar    1  LIG1       -0.0401
      3 C          -2.5721   -1.1573    0.3383 C.ar    1  LIG1       -0.0166
      4 C          -3.3034    0.0154    0.4962 C.ar    1  LIG1        0.1428
      5 C          -4.5307    0.1394   -0.1699 C.ar    1  LIG1        0.1138
      6 N          -5.0401   -0.8517   -0.9001 N.ar    1  LIG1       -0.2513
      7 H          -1.6230   -1.2511    0.8487 H       1  LIG1        0.0655
      8 H          -2.5602   -3.0930   -0.6040 H       1  LIG1        0.0634
      9 H          -4.7995   -2.7455   -1.6518 H       1  LIG1        0.0830
     10 O          -2.7936    0.9868    1.2973 O.3     1  LIG1       -0.5046
     11 H          -3.4896    1.6025    1.5608 H       1  LIG1        0.2922
     12 C          -6.7366    1.2801    0.0965 C.ar    1  LIG1        0.0378
     13 C          -5.3485    1.3824   -0.0612 C.ar    1  LIG1        0.0255
     14 C          -4.7883    2.6548   -0.1277 C.ar    1  LIG1       -0.0073
     15 C          -5.6245    3.7648   -0.0398 C.ar    1  LIG1        0.1434
     16 C          -7.0038    3.5613    0.0913 C.ar    1  LIG1        0.1138
     17 N          -7.5289    2.3375    0.1760 N.ar    1  LIG1       -0.2506
     18 H          -3.7257    2.8134   -0.2703 H       1  LIG1        0.0662
     19 H          -7.1997    0.3034    0.1463 H       1  LIG1        0.0836
     20 O          -5.0533    4.9941   -0.0832 O.3     1  LIG1       -0.5046
     21 H          -5.6797    5.6663    0.2138 H       1  LIG1        0.2922
     22 C          -8.9844    4.6747    1.1221 C.ar    1  LIG1        0.0371
     23 C          -7.9505    4.7104    0.1776 C.ar    1  LIG1        0.0255
     24 C          -7.8630    5.8114   -0.6710 C.ar    1  LIG1       -0.0079
     25 C          -8.7983    6.8333   -0.5288 C.ar    1  LIG1        0.1355
     26 C          -9.7787    6.7108    0.4534 C.ar    1  LIG1        0.0690
     27 N          -9.8695    5.6525    1.2543 N.ar    1  LIG1       -0.2590
     28 H          -7.1212    5.8785   -1.4586 H       1  LIG1        0.0661
     29 H         -10.5190    7.4936    0.5901 H       1  LIG1        0.0867
     30 H          -9.0836    3.8156    1.7728 H       1  LIG1        0.0836
     31 O          -8.7119    7.9025   -1.3596 O.3     1  LIG1       -0.5052
     32 H          -9.4476    8.5084   -1.2182 H       1  LIG1        0.2922
@<TRIPOS>BOND
     1     9     1    1
     2    28    24    1
     3    31    32    1
     4    31    25    1
     5     1     6   ar
     6     1     2   ar
     7     6     5   ar
     8    24    25   ar
     9    24    23   ar
    10     8     2    1
    11    25    26   ar
    12     2     3   ar
    13    18    14    1
    14     5    13    1
    15     5     4   ar
    16    14    13   ar
    17    14    15   ar
    18    20    15    1
    19    20    21    1
    20    13    12   ar
    21    15    16   ar
    22    16    17   ar
    23    16    23    1
    24    12    19    1
    25    12    17   ar
    26    23    22   ar
    27     3     4   ar
    28     3     7    1
    29    26    29    1
    30    26    27   ar
    31     4    10    1
    32    22    27   ar
    33    22    30    1
    34    10    11    1
