@<TRIPOS>MOLECULE
mol_data/opt/m06hf/geoms/mol2/6af6af6af-6af-.out
 42 45 0 0 0
SMALL
GASTEIGER

@<TRIPOS>ATOM
      1 C          -4.3778   -2.2255   -0.1436 C.ar    1  LIG1        0.0285
      2 C          -2.9966   -2.2531    0.0498 C.ar    1  LIG1       -0.0401
      3 C          -2.3311   -1.0566    0.2645 C.ar    1  LIG1       -0.0166
      4 C          -3.0640    0.1265    0.2570 C.ar    1  LIG1        0.1428
      5 C          -4.4422    0.0632    0.0093 C.ar    1  LIG1        0.1138
      6 N          -5.0759   -1.0973   -0.1605 N.ar    1  LIG1       -0.2513
      7 H          -1.2665   -1.0066    0.4503 H       1  LIG1        0.0655
      8 H          -2.4633   -3.1934    0.0463 H       1  LIG1        0.0634
      9 H          -4.9366   -3.1400   -0.2946 H       1  LIG1        0.0830
     10 O          -2.4038    1.2888    0.4968 O.3     1  LIG1       -0.5046
     11 H          -3.0238    1.9809    0.7602 H       1  LIG1        0.2922
     12 C          -6.5674    1.2771    0.5086 C.ar    1  LIG1        0.0378
     13 C          -5.2796    1.2961   -0.0445 C.ar    1  LIG1        0.0255
     14 C          -4.8600    2.4617   -0.6777 C.ar    1  LIG1       -0.0073
     15 C          -5.7095    3.5655   -0.6985 C.ar    1  LIG1        0.1434
     16 C          -6.9514    3.4732   -0.0588 C.ar    1  LIG1        0.1138
     17 N          -7.3658    2.3311    0.4976 N.ar    1  LIG1       -0.2506
     18 H          -3.9124    2.5282   -1.1997 H       1  LIG1        0.0662
     19 H          -6.9407    0.3687    0.9624 H       1  LIG1        0.0836
     20 O          -5.2853    4.6728   -1.3581 O.3     1  LIG1       -0.5046
     21 H          -6.0343    5.2360   -1.5929 H       1  LIG1        0.2922
     22 C          -7.5030    5.9461    0.1323 C.ar    1  LIG1        0.0378
     23 C          -7.9054    4.6169   -0.0069 C.ar    1  LIG1        0.0255
     24 C          -9.2748    4.3584   -0.0378 C.ar    1  LIG1       -0.0073
     25 C         -10.1702    5.4119    0.0330 C.ar    1  LIG1        0.1434
     26 C          -9.6762    6.7304    0.1259 C.ar    1  LIG1        0.1138
     27 N          -8.3673    6.9543    0.1867 N.ar    1  LIG1       -0.2506
     28 H          -9.6152    3.3303   -0.0954 H       1  LIG1        0.0662
     29 H          -6.4560    6.2073    0.2373 H       1  LIG1        0.0836
     30 O         -11.5144    5.2103    0.0239 O.3     1  LIG1       -0.5046
     31 H         -11.7143    4.2712    0.1045 H       1  LIG1        0.2922
     32 C         -10.0432    9.0807    0.8232 C.ar    1  LIG1        0.0371
     33 C         -10.5554    7.9326    0.2123 C.ar    1  LIG1        0.0255
     34 C         -11.8518    7.9809   -0.3044 C.ar    1  LIG1       -0.0079
     35 C         -12.5657    9.1649   -0.1810 C.ar    1  LIG1        0.1355
     36 C         -11.9686   10.2543    0.4545 C.ar    1  LIG1        0.0690
     37 N         -10.7361   10.2096    0.9431 N.ar    1  LIG1       -0.2590
     38 H         -12.2894    7.1169   -0.7870 H       1  LIG1        0.0661
     39 H         -12.5269   11.1767    0.5567 H       1  LIG1        0.0867
     40 H          -9.0377    9.0681    1.2207 H       1  LIG1        0.0836
     41 O         -13.8324    9.3296   -0.6483 O.3     1  LIG1       -0.5052
     42 H         -14.1491    8.5207   -1.0632 H       1  LIG1        0.2922
@<TRIPOS>BOND
     1    21    20    1
     2    20    15    1
     3    18    14    1
     4    42    41    1
     5    38    34    1
     6    15    14   ar
     7    15    16   ar
     8    14    13   ar
     9    41    35    1
    10    34    35   ar
    11    34    33   ar
    12     9     1    1
    13    35    36   ar
    14     6     1   ar
    15     6     5   ar
    16     1     2   ar
    17    28    24    1
    18    16    23    1
    19    16    17   ar
    20    13     5    1
    21    13    12   ar
    22    24    23   ar
    23    24    25   ar
    24    23    22   ar
    25     5     4   ar
    26    30    25    1
    27    30    31    1
    28    25    26   ar
    29     8     2    1
    30     2     3   ar
    31    26    27   ar
    32    26    33    1
    33    22    27   ar
    34    22    29    1
    35    33    32   ar
    36     4     3   ar
    37     4    10    1
    38     3     7    1
    39    36    39    1
    40    36    37   ar
    41    10    11    1
    42    17    12   ar
    43    12    19    1
    44    32    37   ar
    45    32    40    1
