@<TRIPOS>MOLECULE
mol_data/opt/m06hf/geoms/mol2/6af6af-6af-6af.out
 42 45 0 0 0
SMALL
GASTEIGER

@<TRIPOS>ATOM
      1 C          -4.0324   -1.9550    1.0638 C.ar    1  LIG1        0.0285
      2 C          -2.8318   -2.1163    0.3719 C.ar    1  LIG1       -0.0401
      3 C          -2.4394   -1.1262   -0.5140 C.ar    1  LIG1       -0.0166
      4 C          -3.2427    0.0011   -0.6606 C.ar    1  LIG1        0.1428
      5 C          -4.4050    0.1041    0.1158 C.ar    1  LIG1        0.1138
      6 N          -4.7923   -0.8761    0.9330 N.ar    1  LIG1       -0.2513
      7 H          -1.5377   -1.1997   -1.1070 H       1  LIG1        0.0655
      8 H          -2.2322   -3.0041    0.5166 H       1  LIG1        0.0634
      9 H          -4.3883   -2.7157    1.7467 H       1  LIG1        0.0830
     10 O          -2.8575    0.9425   -1.5597 O.3     1  LIG1       -0.5046
     11 H          -3.6029    1.5058   -1.8021 H       1  LIG1        0.2922
     12 C          -4.8178    2.6029   -0.0831 C.ar    1  LIG1        0.0378
     13 C          -5.2964    1.2979    0.0499 C.ar    1  LIG1        0.0255
     14 C          -6.6717    1.1304    0.1943 C.ar    1  LIG1       -0.0073
     15 C          -7.5042    2.2370    0.1657 C.ar    1  LIG1        0.1434
     16 C          -6.9400    3.5173   -0.0122 C.ar    1  LIG1        0.1138
     17 N          -5.6217    3.6594   -0.1172 N.ar    1  LIG1       -0.2506
     18 H          -7.0661    0.1317    0.3498 H       1  LIG1        0.0662
     19 H          -3.7541    2.8073   -0.1300 H       1  LIG1        0.0836
     20 O          -8.8508    2.1198    0.3122 O.3     1  LIG1       -0.5046
     21 H          -9.0868    1.2106    0.5264 H       1  LIG1        0.2922
     22 C          -7.0797    5.9862    0.2115 C.ar    1  LIG1        0.0378
     23 C          -7.7357    4.7780   -0.0516 C.ar    1  LIG1        0.0255
     24 C          -9.0935    4.8426   -0.3519 C.ar    1  LIG1       -0.0073
     25 C          -9.7302    6.0784   -0.3808 C.ar    1  LIG1        0.1434
     26 C          -8.9921    7.2408   -0.1124 C.ar    1  LIG1        0.1138
     27 N          -7.6938    7.1576    0.1842 N.ar    1  LIG1       -0.2506
     28 H          -9.6576    3.9426   -0.5575 H       1  LIG1        0.0662
     29 H          -6.0248    5.9830    0.4479 H       1  LIG1        0.0836
     30 O         -11.0594    6.1820   -0.6512 O.3     1  LIG1       -0.5046
     31 H         -11.4465    5.3090   -0.7757 H       1  LIG1        0.2922
     32 C         -10.7296    8.9814   -0.8047 C.ar    1  LIG1        0.0371
     33 C          -9.5744    8.6167   -0.1010 C.ar    1  LIG1        0.0255
     34 C          -8.9013    9.6011    0.6187 C.ar    1  LIG1       -0.0079
     35 C          -9.4130   10.8907    0.6260 C.ar    1  LIG1        0.1355
     36 C         -10.5725   11.1540   -0.1018 C.ar    1  LIG1        0.0690
     37 N         -11.2074   10.2224   -0.8024 N.ar    1  LIG1       -0.2590
     38 H          -7.9924    9.3660    1.1556 H       1  LIG1        0.0661
     39 H         -10.9940   12.1553   -0.1188 H       1  LIG1        0.0867
     40 H         -11.2758    8.2541   -1.3854 H       1  LIG1        0.0836
     41 O          -8.7627   11.8454    1.3447 O.3     1  LIG1       -0.5052
     42 H          -9.2026   12.6973    1.2507 H       1  LIG1        0.2922
@<TRIPOS>BOND
     1    11    10    1
     2    10     4    1
     3    40    32    1
     4     7     3    1
     5    32    37   ar
     6    32    33   ar
     7    37    36   ar
     8    31    30    1
     9     4     3   ar
    10     4     5   ar
    11    30    25    1
    12    28    24    1
    13     3     2   ar
    14    25    24   ar
    15    25    26   ar
    16    24    23   ar
    17    19    12    1
    18    39    36    1
    19    17    12   ar
    20    17    16   ar
    21    26    33    1
    22    26    27   ar
    23    36    35   ar
    24    33    34   ar
    25    12    13   ar
    26    23    16    1
    27    23    22   ar
    28    16    15   ar
    29    13     5    1
    30    13    14   ar
    31     5     6   ar
    32    15    14   ar
    33    15    20    1
    34    27    22   ar
    35    14    18    1
    36    22    29    1
    37    20    21    1
    38     2     8    1
    39     2     1   ar
    40    34    35   ar
    41    34    38    1
    42    35    41    1
    43     6     1   ar
    44     1     9    1
    45    42    41    1
