@<TRIPOS>MOLECULE
mol_data/opt/m06hf/geoms/mol2/6af6af.out
 22 23 0 0 0
SMALL
GASTEIGER

@<TRIPOS>ATOM
      1 C          -4.5098   -2.0490   -0.5093 C.ar    1  LIG1        0.0285
      2 C          -3.1439   -2.1061   -0.2340 C.ar    1  LIG1       -0.0401
      3 C          -2.5021   -0.9533    0.1913 C.ar    1  LIG1       -0.0166
      4 C          -3.2421    0.2193    0.3046 C.ar    1  LIG1        0.1428
      5 C          -4.6019    0.1945   -0.0366 C.ar    1  LIG1        0.1138
      6 N          -5.2142   -0.9282   -0.4104 N.ar    1  LIG1       -0.2513
      7 H          -1.4520   -0.9320    0.4494 H       1  LIG1        0.0655
      8 H          -2.6043   -3.0371   -0.3381 H       1  LIG1        0.0634
      9 H          -5.0521   -2.9313   -0.8233 H       1  LIG1        0.0830
     10 O          -2.6095    1.3362    0.7492 O.3     1  LIG1       -0.5046
     11 H          -3.2546    1.9902    1.0466 H       1  LIG1        0.2922
     12 C          -6.7404    1.3368    0.5571 C.ar    1  LIG1        0.0371
     13 C          -5.4417    1.4259    0.0395 C.ar    1  LIG1        0.0255
     14 C          -4.9931    2.6630   -0.4173 C.ar    1  LIG1       -0.0079
     15 C          -5.8512    3.7556   -0.3221 C.ar    1  LIG1        0.1355
     16 C          -7.1193    3.5656    0.2223 C.ar    1  LIG1        0.0690
     17 N          -7.5520    2.3812    0.6461 N.ar    1  LIG1       -0.2590
     18 H          -4.0186    2.7933   -0.8735 H       1  LIG1        0.0661
     19 H          -7.8083    4.4002    0.3118 H       1  LIG1        0.0867
     20 H          -7.1145    0.3796    0.8957 H       1  LIG1        0.0836
     21 O          -5.4111    4.9591   -0.7700 O.3     1  LIG1       -0.5052
     22 H          -6.0985    5.6288   -0.6848 H       1  LIG1        0.2922
@<TRIPOS>BOND
     1    18    14    1
     2     9     1    1
     3    21    22    1
     4    21    15    1
     5     1     6   ar
     6     1     2   ar
     7    14    15   ar
     8    14    13   ar
     9     6     5   ar
    10     8     2    1
    11    15    16   ar
    12     2     3   ar
    13     5    13    1
    14     5     4   ar
    15    13    12   ar
    16     3     4   ar
    17     3     7    1
    18    16    19    1
    19    16    17   ar
    20     4    10    1
    21    12    17   ar
    22    12    20    1
    23    10    11    1
