@<TRIPOS>MOLECULE
mol_data/opt/m06hf/geoms/mol2/6af6af6af6af-.out
 42 45 0 0 0
SMALL
GASTEIGER

@<TRIPOS>ATOM
      1 C          -4.1571   -1.9971   -1.0534 C.ar    1  LIG1        0.0285
      2 C          -2.9868   -2.2169   -0.3274 C.ar    1  LIG1       -0.0401
      3 C          -2.5584   -1.2378    0.5551 C.ar    1  LIG1       -0.0166
      4 C          -3.3011   -0.0664    0.6658 C.ar    1  LIG1        0.1428
      5 C          -4.4401    0.0880   -0.1369 C.ar    1  LIG1        0.1138
      6 N          -4.8605   -0.8764   -0.9554 N.ar    1  LIG1       -0.2513
      7 H          -1.6762   -1.3531    1.1705 H       1  LIG1        0.0655
      8 H          -2.4368   -3.1400   -0.4446 H       1  LIG1        0.0634
      9 H          -4.5364   -2.7452   -1.7376 H       1  LIG1        0.0830
     10 O          -2.8854    0.8715    1.5565 O.3     1  LIG1       -0.5046
     11 H          -3.6071    1.4760    1.7710 H       1  LIG1        0.2922
     12 C          -6.6634    1.2216   -0.1498 C.ar    1  LIG1        0.0378
     13 C          -5.2668    1.3290   -0.0899 C.ar    1  LIG1        0.0255
     14 C          -4.7119    2.6025   -0.0127 C.ar    1  LIG1       -0.0073
     15 C          -5.5583    3.7086    0.0012 C.ar    1  LIG1        0.1434
     16 C          -6.9397    3.5013   -0.0921 C.ar    1  LIG1        0.1138
     17 N          -7.4639    2.2747   -0.1442 N.ar    1  LIG1       -0.2506
     18 H          -3.6410    2.7688    0.0132 H       1  LIG1        0.0662
     19 H          -7.1214    0.2436   -0.2166 H       1  LIG1        0.0836
     20 O          -4.9924    4.9370    0.1052 O.3     1  LIG1       -0.5046
     21 H          -5.6545    5.5924    0.3598 H       1  LIG1        0.2922
     22 C          -9.1037    4.5344    0.6024 C.ar    1  LIG1        0.0378
     23 C          -7.8983    4.6425   -0.1036 C.ar    1  LIG1        0.0255
     24 C          -7.6704    5.8065   -0.8322 C.ar    1  LIG1       -0.0073
     25 C          -8.6166    6.8274   -0.7903 C.ar    1  LIG1        0.1434
     26 C          -9.7602    6.6541   -0.0001 C.ar    1  LIG1        0.1138
     27 N          -9.9963    5.5101    0.6464 N.ar    1  LIG1       -0.2506
     28 H          -6.8038    5.9289   -1.4722 H       1  LIG1        0.0662
     29 H          -9.3324    3.6204    1.1344 H       1  LIG1        0.0836
     30 O          -8.3837    7.9336   -1.5379 O.3     1  LIG1       -0.5046
     31 H          -9.1937    8.4506   -1.6377 H       1  LIG1        0.2922
     32 C         -10.4719    9.0679    0.2415 C.ar    1  LIG1        0.0371
     33 C         -10.7988    7.7175    0.1210 C.ar    1  LIG1        0.0255
     34 C         -12.1458    7.3499    0.1703 C.ar    1  LIG1       -0.0079
     35 C         -13.0953    8.3472    0.3091 C.ar    1  LIG1        0.1355
     36 C         -12.6680    9.6804    0.3981 C.ar    1  LIG1        0.0690
     37 N         -11.3929   10.0261    0.3724 N.ar    1  LIG1       -0.2590
     38 H         -12.4138    6.3006    0.1166 H       1  LIG1        0.0661
     39 H         -13.4103   10.4620    0.5044 H       1  LIG1        0.0867
     40 H          -9.4365    9.3891    0.2706 H       1  LIG1        0.0836
     41 O         -14.4304    8.1213    0.3668 O.3     1  LIG1       -0.5052
     42 H         -14.6242    7.1813    0.2865 H       1  LIG1        0.2922
@<TRIPOS>BOND
     1     9     1    1
     2    31    30    1
     3    30    25    1
     4    28    24    1
     5     1     6   ar
     6     1     2   ar
     7     6     5   ar
     8    24    25   ar
     9    24    23   ar
    10    25    26   ar
    11     8     2    1
    12     2     3   ar
    13    19    12    1
    14    12    17   ar
    15    12    13   ar
    16    17    16   ar
    17     5    13    1
    18     5     4   ar
    19    23    16    1
    20    23    22   ar
    21    16    15   ar
    22    13    14   ar
    23    14    15   ar
    24    14    18    1
    25    26    33    1
    26    26    27   ar
    27    15    20    1
    28    20    21    1
    29    38    34    1
    30    33    34   ar
    31    33    32   ar
    32    34    35   ar
    33    32    40    1
    34    32    37   ar
    35    42    41    1
    36    35    41    1
    37    35    36   ar
    38    37    36   ar
    39    36    39    1
    40     3     4   ar
    41     3     7    1
    42    22    27   ar
    43    22    29    1
    44     4    10    1
    45    10    11    1
