@<TRIPOS>MOLECULE
mol_data/opt/m06hf/geoms/mol2/6af6af-6af-6af-.out
 42 45 0 0 0
SMALL
GASTEIGER

@<TRIPOS>ATOM
      1 C          -4.1523   -2.0729    0.9197 C.ar    1  LIG1        0.0285
      2 C          -2.8745   -2.1828    0.3708 C.ar    1  LIG1       -0.0401
      3 C          -2.3726   -1.1180   -0.3596 C.ar    1  LIG1       -0.0166
      4 C          -3.1500    0.0292   -0.4948 C.ar    1  LIG1        0.1428
      5 C          -4.4010    0.0720    0.1361 C.ar    1  LIG1        0.1138
      6 N          -4.8895   -0.9770    0.7999 N.ar    1  LIG1       -0.2513
      7 H          -1.4037   -1.1456   -0.8399 H       1  LIG1        0.0655
      8 H          -2.2995   -3.0887    0.5020 H       1  LIG1        0.0634
      9 H          -4.5920   -2.8912    1.4755 H       1  LIG1        0.0830
     10 O          -2.6538    1.0490   -1.2411 O.3     1  LIG1       -0.5046
     11 H          -3.3626    1.6405   -1.5238 H       1  LIG1        0.2922
     12 C          -4.7891    2.5839    0.1232 C.ar    1  LIG1        0.0378
     13 C          -5.2781    1.2766    0.0723 C.ar    1  LIG1        0.0255
     14 C          -6.6602    1.1091    0.0259 C.ar    1  LIG1       -0.0073
     15 C          -7.4838    2.2219   -0.0031 C.ar    1  LIG1        0.1434
     16 C          -6.9036    3.5074    0.0082 C.ar    1  LIG1        0.1138
     17 N          -5.5837    3.6479    0.0847 N.ar    1  LIG1       -0.2506
     18 H          -7.0700    0.1048    0.0357 H       1  LIG1        0.0662
     19 H          -3.7288    2.7806    0.2335 H       1  LIG1        0.0836
     20 O          -8.8385    2.1077   -0.0366 O.3     1  LIG1       -0.5046
     21 H          -9.1035    1.1920    0.1044 H       1  LIG1        0.2922
     22 C          -7.1054    5.9410    0.4693 C.ar    1  LIG1        0.0378
     23 C          -7.6972    4.7692   -0.0155 C.ar    1  LIG1        0.0255
     24 C          -8.9917    4.8706   -0.5161 C.ar    1  LIG1       -0.0073
     25 C          -9.6361    6.1019   -0.5033 C.ar    1  LIG1        0.1434
     26 C          -8.9775    7.2219    0.0267 C.ar    1  LIG1        0.1138
     27 N          -7.7307    7.1066    0.4893 N.ar    1  LIG1       -0.2506
     28 H          -9.4990    4.0032   -0.9174 H       1  LIG1        0.0662
     29 H          -6.0938    5.9122    0.8507 H       1  LIG1        0.0836
     30 O         -10.8963    6.2387   -1.0060 O.3     1  LIG1       -0.5046
     31 H         -11.1921    5.4065   -1.3896 H       1  LIG1        0.2922
     32 C          -8.7127    9.6794    0.2309 C.ar    1  LIG1        0.0371
     33 C          -9.5768    8.5871    0.0988 C.ar    1  LIG1        0.0255
     34 C         -10.9500    8.8354    0.0763 C.ar    1  LIG1       -0.0079
     35 C         -11.3864   10.1488    0.1833 C.ar    1  LIG1        0.1355
     36 C         -10.4445   11.1699    0.3036 C.ar    1  LIG1        0.0690
     37 N          -9.1386   10.9356    0.3256 N.ar    1  LIG1       -0.2590
     38 H         -11.6583    8.0235   -0.0213 H       1  LIG1        0.0661
     39 H         -10.7828   12.1957    0.3844 H       1  LIG1        0.0867
     40 H          -7.6453    9.5089    0.2640 H       1  LIG1        0.0836
     41 O         -12.7018   10.5009    0.1788 O.3     1  LIG1       -0.5052
     42 H         -13.2582    9.7191    0.0989 H       1  LIG1        0.2922
@<TRIPOS>BOND
     1    11    10    1
     2    31    30    1
     3    10     4    1
     4    30    25    1
     5    28    24    1
     6     7     3    1
     7    24    25   ar
     8    24    23   ar
     9    25    26   ar
    10     4     3   ar
    11     4     5   ar
    12     3     2   ar
    13    20    15    1
    14    20    21    1
    15    38    34    1
    16    23    16    1
    17    23    22   ar
    18    15    16   ar
    19    15    14   ar
    20    16    17   ar
    21    14    18    1
    22    14    13   ar
    23    26    33    1
    24    26    27   ar
    25    13    12   ar
    26    13     5    1
    27    34    33   ar
    28    34    35   ar
    29    17    12   ar
    30    33    32   ar
    31    42    41    1
    32    12    19    1
    33     5     6   ar
    34    41    35    1
    35    35    36   ar
    36    32    40    1
    37    32    37   ar
    38    36    37   ar
    39    36    39    1
    40     2     8    1
    41     2     1   ar
    42    22    27   ar
    43    22    29    1
    44     6     1   ar
    45     1     9    1
