@<TRIPOS>MOLECULE
mol_data/opt/m06hf/geoms/mol2/6af6af-.out
 22 23 0 0 0
SMALL
GASTEIGER

@<TRIPOS>ATOM
      1 C          -4.4775   -2.0613    0.4639 C.ar    1  LIG1        0.0285
      2 C          -3.1249   -2.1079    0.1283 C.ar    1  LIG1       -0.0401
      3 C          -2.4974   -0.9350   -0.2598 C.ar    1  LIG1       -0.0166
      4 C          -3.2336    0.2465   -0.2773 C.ar    1  LIG1        0.1428
      5 C          -4.5770    0.2083    0.1221 C.ar    1  LIG1        0.1138
      6 N          -5.1777   -0.9344    0.4558 N.ar    1  LIG1       -0.2513
      7 H          -1.4594   -0.9023   -0.5627 H       1  LIG1        0.0655
      8 H          -2.5862   -3.0451    0.1569 H       1  LIG1        0.0634
      9 H          -5.0114   -2.9585    0.7499 H       1  LIG1        0.0830
     10 O          -2.6090    1.3757   -0.6955 O.3     1  LIG1       -0.5046
     11 H          -3.2554    2.0638   -0.8994 H       1  LIG1        0.2922
     12 C          -4.9441    2.6699    0.5974 C.ar    1  LIG1        0.0371
     13 C          -5.4236    1.4375    0.1524 C.ar    1  LIG1        0.0255
     14 C          -6.7631    1.3467   -0.2336 C.ar    1  LIG1       -0.0079
     15 C          -7.5443    2.4881   -0.1843 C.ar    1  LIG1        0.1355
     16 C          -6.9617    3.6878    0.2495 C.ar    1  LIG1        0.0690
     17 N          -5.7006    3.7701    0.6359 N.ar    1  LIG1       -0.2590
     18 H          -7.1615    0.3879   -0.5458 H       1  LIG1        0.0661
     19 H          -7.5683    4.5845    0.2828 H       1  LIG1        0.0867
     20 H          -3.9308    2.7709    0.9703 H       1  LIG1        0.0836
     21 O          -8.8537    2.5254   -0.5360 O.3     1  LIG1       -0.5052
     22 H          -9.1670    1.6472   -0.7765 H       1  LIG1        0.2922
@<TRIPOS>BOND
     1    11    10    1
     2    22    21    1
     3    10     4    1
     4     7     3    1
     5    18    14    1
     6    21    15    1
     7     4     3   ar
     8     4     5   ar
     9     3     2   ar
    10    14    15   ar
    11    14    13   ar
    12    15    16   ar
    13     5    13    1
    14     5     6   ar
    15     2     8    1
    16     2     1   ar
    17    13    12   ar
    18    16    19    1
    19    16    17   ar
    20     6     1   ar
    21     1     9    1
    22    12    17   ar
    23    12    20    1
