@<TRIPOS>MOLECULE
mol_data/opt/m06hf/geoms/mol2/6ag.out
 12 12 0 0 0
SMALL
GASTEIGER

@<TRIPOS>ATOM
      1 C          -4.6011   -2.0937    0.0001 C.ar    1  LIG1        0.0276
      2 C          -3.2092   -2.0842    0.0000 C.ar    1  LIG1       -0.0426
      3 C          -2.5497   -0.8621   -0.0002 C.ar    1  LIG1       -0.0457
      4 C          -3.3070    0.3075   -0.0003 C.ar    1  LIG1        0.0229
      5 C          -4.6990    0.1880   -0.0002 C.ar    1  LIG1        0.0407
      6 N          -5.3303   -0.9803   -0.0000 N.ar    1  LIG1       -0.2622
      7 H          -1.4677   -0.8153   -0.0002 H       1  LIG1        0.0629
      8 H          -2.6558   -3.0131    0.0002 H       1  LIG1        0.0633
      9 H          -5.3272    1.0718   -0.0003 H       1  LIG1        0.0841
     10 H          -5.1502   -3.0271    0.0003 H       1  LIG1        0.0829
     11 S          -2.4705    1.8746   -0.0007 S.3     1  LIG1       -0.1412
     12 H          -3.5775    2.6244   -0.0001 H       1  LIG1        0.1072
@<TRIPOS>BOND
     1    11     4    1
     2    11    12    1
     3     9     5    1
     4     4     5   ar
     5     4     3   ar
     6     7     3    1
     7     5     6   ar
     8     3     2   ar
     9     6     1   ar
    10     2     1   ar
    11     2     8    1
    12     1    10    1
