@<TRIPOS>MOLECULE
mol_data/opt/m06hf/geoms/mol2/6ah13eh-6fa-13df12hl-6af12di-13he-.out
 91 98 0 0 0
SMALL
GASTEIGER

@<TRIPOS>ATOM
      1 C          -4.7313   -1.1530    2.9454 C.ar    1  LIG1        0.0284
      2 C          -3.4602   -1.0647    3.5133 C.ar    1  LIG1       -0.0418
      3 C          -2.6870    0.0469    3.2387 C.ar    1  LIG1       -0.0375
      4 C          -3.1715    1.0607    2.3956 C.ar    1  LIG1        0.0524
      5 C          -4.4454    0.8458    1.8294 C.ar    1  LIG1        0.1089
      6 N          -5.1946   -0.2194    2.1295 N.ar    1  LIG1       -0.2516
      7 H          -1.7075    0.1615    3.6875 H       1  LIG1        0.0637
      8 H          -3.0945   -1.8463    4.1645 H       1  LIG1        0.0633
      9 H          -5.3841   -1.9910    3.1502 H       1  LIG1        0.0830
     10 N          -2.4558    2.2201    2.2247 N.pl3   1  LIG1       -0.3563
     11 H          -1.4912    2.1976    2.5164 H       1  LIG1        0.1424
     12 H          -2.6312    2.7917    1.4122 H       1  LIG1        0.1424
     13 C          -5.1264    1.8001    0.9240 C.ar    1  LIG1        0.0846
     14 C          -4.7281    2.6984   -0.0672 C.ar    1  LIG1        0.0727
     15 C          -5.9115    3.2880   -0.6101 C.ar    1  LIG1        0.0666
     16 C          -6.9858    2.7275    0.0480 C.ar    1  LIG1        0.0742
     17 N          -6.4752    1.8268    0.9598 N.ar    1  LIG1       -0.3503
     18 H          -6.9992    1.2655    1.6204 H       1  LIG1        0.1660
     19 C          -3.4247    2.9527   -0.5953 C.1     1  LIG1       -0.0656
     20 C          -2.3452    3.2018   -1.0703 C.1     1  LIG1       -0.1138
     21 H          -1.3909    3.4035   -1.4999 H       1  LIG1        0.1232
     22 N          -5.9508    4.2685   -1.6062 N.pl3   1  LIG1       -0.3554
     23 H          -5.0548    4.3801   -2.0661 H       1  LIG1        0.1424
     24 H          -6.6935    4.1232   -2.2808 H       1  LIG1        0.1424
     25 C          -9.3668    1.9466   -0.0590 C.ar    1  LIG1        0.2223
     26 C          -8.4196    2.9935   -0.1107 C.ar    1  LIG1        0.0615
     27 C          -8.9075    4.2771   -0.3318 C.ar    1  LIG1       -0.0454
     28 C         -10.2773    4.4943   -0.4623 C.ar    1  LIG1       -0.0334
     29 C         -11.1140    3.3902   -0.3462 C.ar    1  LIG1        0.0923
     30 N         -10.6602    2.1435   -0.1555 N.ar    1  LIG1       -0.2110
     31 H          -8.2049    5.1003   -0.3889 H       1  LIG1        0.0626
     32 O          -8.9798    0.6619    0.1139 O.3     1  LIG1       -0.4919
     33 H          -8.0548    0.5542   -0.1467 H       1  LIG1        0.2937
     34 H         -10.6773    5.4839   -0.6289 H       1  LIG1        0.0640
     35 C         -12.5826    3.4771   -0.4347 C.ar    1  LIG1        0.0868
     36 C         -13.4759    4.5328   -0.6166 C.ar    1  LIG1        0.1205
     37 C         -14.7876    3.9866   -0.6156 C.ar    1  LIG1        0.1632
     38 C         -14.6458    2.6184   -0.4265 C.ar    1  LIG1        0.1278
     39 N         -13.3045    2.3501   -0.3236 N.ar    1  LIG1       -0.3465
     40 H         -12.8641    1.4485   -0.1841 H       1  LIG1        0.1662
     41 N         -12.8605    7.0190   -0.9114 N.1     1  LIG1       -0.1907
     42 C         -13.1507    5.9148   -0.7816 C.1     1  LIG1        0.1050
     43 O         -15.9054    4.6994   -0.7844 O.3     1  LIG1       -0.5034
     44 H         -16.6978    4.1209   -0.6220 H       1  LIG1        0.2923
     45 C         -15.6574    1.5903   -0.3545 C.ar    1  LIG1        0.1796
     46 C         -17.0156    1.6532   -0.2538 C.ar    1  LIG1        0.1155
     47 C         -17.4686    0.2903   -0.2646 C.ar    1  LIG1        0.1871
     48 C         -16.3616   -0.4985   -0.3562 C.ar    1  LIG1        0.1806
     49 O         -15.2604    0.3012   -0.4022 O.2     1  LIG1       -0.4475
     50 N         -17.7933    2.8466   -0.1741 N.pl3   1  LIG1       -0.3521
     51 H         -18.6112    2.7786   -0.7758 H       1  LIG1        0.1425
     52 H         -18.1097    3.0265    0.7762 H       1  LIG1        0.1425
     53 O         -18.7683   -0.1053   -0.1992 O.3     1  LIG1       -0.4896
     54 C         -19.2272   -0.3173    1.1410 C.3     1  LIG1        0.0791
     55 H         -20.2647   -0.6301    1.0615 H       1  LIG1        0.0660
     56 H         -18.6302   -1.0942    1.6207 H       1  LIG1        0.0660
     57 H         -19.1549    0.6098    1.7134 H       1  LIG1        0.0660
     58 C         -14.8992   -2.5110   -0.3033 C.ar    1  LIG1        0.0394
     59 C         -16.1783   -1.9448   -0.4100 C.ar    1  LIG1        0.0426
     60 C         -17.2647   -2.8002   -0.5747 C.ar    1  LIG1       -0.0057
     61 C         -17.0509   -4.1735   -0.6077 C.ar    1  LIG1        0.1465
     62 C         -15.7330   -4.6399   -0.4886 C.ar    1  LIG1        0.1485
     63 N         -14.6922   -3.8149   -0.3451 N.ar    1  LIG1       -0.2475
     64 H         -18.2696   -2.4198   -0.7068 H       1  LIG1        0.0662
     65 H         -14.0283   -1.8793   -0.1873 H       1  LIG1        0.0837
     66 O         -18.1140   -4.9848   -0.8629 O.3     1  LIG1       -0.5045
     67 H         -18.2853   -5.6104   -0.1448 H       1  LIG1        0.2922
     68 C         -15.3836   -6.0714   -0.5660 C.ar    1  LIG1        0.1750
     69 C         -15.9562   -7.2269   -0.1111 C.ar    1  LIG1        0.1026
     70 C         -15.0802   -8.3225   -0.4469 C.ar    1  LIG1        0.0149
     71 C         -14.0471   -7.7289   -1.1048 C.ar    1  LIG1        0.1578
     72 O         -14.2321   -6.3819   -1.1722 O.2     1  LIG1       -0.4500
     73 N         -18.1532   -7.3107    1.2393 N.1     1  LIG1       -0.1907
     74 C         -17.1681   -7.2982    0.6454 C.1     1  LIG1        0.1033
     75 C         -15.2612   -9.7633   -0.0473 C.3     1  LIG1       -0.0348
     76 H         -14.4838  -10.3778   -0.5005 H       1  LIG1        0.0279
     77 H         -16.2394  -10.1207   -0.3729 H       1  LIG1        0.0279
     78 H         -15.2090   -9.8481    1.0395 H       1  LIG1        0.0279
     79 C         -12.8178   -8.2207   -1.7045 C.ar    1  LIG1        0.1045
     80 C         -12.5168   -9.4046   -2.3429 C.ar    1  LIG1        0.0688
     81 C         -11.1395   -9.3305   -2.7200 C.ar    1  LIG1        0.0633
     82 C         -10.6673   -8.0975   -2.3091 C.ar    1  LIG1        0.0195
     83 N         -11.6809   -7.4413   -1.7102 N.ar    1  LIG1       -0.3556
     84 H         -11.6460   -6.5072   -1.3305 H       1  LIG1        0.1655
     85 H          -9.6877   -7.6672   -2.4195 H       1  LIG1        0.0820
     86 N         -13.3692  -10.4931   -2.5766 N.pl3   1  LIG1       -0.3553
     87 H         -14.2673  -10.2090   -2.9538 H       1  LIG1        0.1424
     88 H         -12.9284  -11.1773   -3.1819 H       1  LIG1        0.1424
     89 C         -10.4292  -10.3573   -3.4182 C.1     1  LIG1       -0.0663
     90 C          -9.8721  -11.2450   -4.0085 C.1     1  LIG1       -0.1138
     91 H          -9.3654  -12.0257   -4.5260 H       1  LIG1        0.1232
@<TRIPOS>BOND
     1    91    90    1
     2    90    89    3
     3    89    81    1
     4    88    86    1
     5    87    86    1
     6    81    80   ar
     7    81    82   ar
     8    86    80    1
     9    85    82    1
    10    80    79   ar
    11    82    83   ar
    12    24    22    1
    13    23    22    1
    14    83    79   ar
    15    83    84    1
    16    79    71    1
    17    22    15    1
    18    21    20    1
    19    72    71   ar
    20    72    68   ar
    21    71    70   ar
    22    20    19    3
    23    41    42    3
    24    66    61    1
    25    66    67    1
    26    43    44    1
    27    43    37    1
    28    42    36    1
    29    51    50    1
    30    64    60    1
    31    34    28    1
    32    36    37   ar
    33    36    35   ar
    34    37    38   ar
    35    15    14   ar
    36    15    16   ar
    37    61    60   ar
    38    61    62   ar
    39    19    14    1
    40    60    59   ar
    41    68    62    1
    42    68    69   ar
    43    76    75    1
    44    62    63   ar
    45    28    29   ar
    46    28    27   ar
    47    70    69   ar
    48    70    75    1
    49    35    29    1
    50    35    39   ar
    51    38    45    1
    52    38    39   ar
    53    59    48    1
    54    59    58   ar
    55    49    48   ar
    56    49    45   ar
    57    31    27    1
    58    77    75    1
    59    48    47   ar
    60    45    46   ar
    61    29    30   ar
    62    63    58   ar
    63    27    26   ar
    64    39    40    1
    65    58    65    1
    66    47    46   ar
    67    47    53    1
    68    46    50    1
    69    53    54    1
    70    50    52    1
    71    30    25   ar
    72    33    32    1
    73    69    74    1
    74    26    25   ar
    75    26    16    1
    76    14    13   ar
    77    25    32    1
    78    75    78    1
    79    16    17   ar
    80    74    73    3
    81    13    17   ar
    82    13     5    1
    83    17    18    1
    84    55    54    1
    85    54    56    1
    86    54    57    1
    87    12    10    1
    88     5     6   ar
    89     5     4   ar
    90     6     1   ar
    91    10     4    1
    92    10    11    1
    93     4     3   ar
    94     1     9    1
    95     1     2   ar
    96     3     2   ar
    97     3     7    1
    98     2     8    1
