@<TRIPOS>MOLECULE
mol_data/opt/m06hf/geoms/mol2/6ah6ah6ah.out
 35 37 0 0 0
SMALL
GASTEIGER

@<TRIPOS>ATOM
      1 C          -4.3306   -1.8802    1.2572 C.ar    1  LIG1        0.0284
      2 C          -3.0881   -2.1331    0.6830 C.ar    1  LIG1       -0.0418
      3 C          -2.5522   -1.1901   -0.1806 C.ar    1  LIG1       -0.0375
      4 C          -3.2563   -0.0131   -0.4421 C.ar    1  LIG1        0.0509
      5 C          -4.4854    0.1680    0.2241 C.ar    1  LIG1        0.0930
      6 N          -5.0026   -0.7580    1.0276 N.ar    1  LIG1       -0.2531
      7 H          -1.5965   -1.3597   -0.6629 H       1  LIG1        0.0637
      8 H          -2.5605   -3.0517    0.8991 H       1  LIG1        0.0633
      9 H          -4.7976   -2.5960    1.9211 H       1  LIG1        0.0830
     10 N          -2.7453    0.9529   -1.3130 N.pl3   1  LIG1       -0.3563
     11 H          -2.0600    0.5925   -1.9637 H       1  LIG1        0.1424
     12 H          -3.4573    1.5011   -1.7803 H       1  LIG1        0.1424
     13 C          -6.6876    1.2970   -0.1036 C.ar    1  LIG1        0.0376
     14 C          -5.3023    1.4046    0.0430 C.ar    1  LIG1        0.0220
     15 C          -4.7425    2.6785    0.0484 C.ar    1  LIG1       -0.0283
     16 C          -5.5648    3.7997   -0.0828 C.ar    1  LIG1        0.0516
     17 C          -6.9507    3.5799   -0.2048 C.ar    1  LIG1        0.0931
     18 N          -7.4748    2.3552   -0.2325 N.ar    1  LIG1       -0.2524
     19 H          -3.6714    2.8038    0.1654 H       1  LIG1        0.0644
     20 H          -7.1562    0.3217   -0.1057 H       1  LIG1        0.0836
     21 N          -5.0261    5.0879   -0.0637 N.pl3   1  LIG1       -0.3563
     22 H          -4.0395    5.1271   -0.2800 H       1  LIG1        0.1424
     23 H          -5.5635    5.7704   -0.5840 H       1  LIG1        0.1424
     24 C          -8.9568    4.6107   -1.2679 C.ar    1  LIG1        0.0369
     25 C          -7.9160    4.7106   -0.3408 C.ar    1  LIG1        0.0220
     26 C          -7.8412    5.8511    0.4558 C.ar    1  LIG1       -0.0289
     27 C          -8.7973    6.8566    0.2975 C.ar    1  LIG1        0.0435
     28 C          -9.7847    6.6575   -0.6760 C.ar    1  LIG1        0.0482
     29 N          -9.8617    5.5693   -1.4317 N.ar    1  LIG1       -0.2608
     30 H          -7.0627    5.9443    1.2055 H       1  LIG1        0.0643
     31 H         -10.5455    7.4152   -0.8342 H       1  LIG1        0.0848
     32 H          -9.0483    3.7224   -1.8790 H       1  LIG1        0.0836
     33 N          -8.8113    7.9876    1.1096 N.pl3   1  LIG1       -0.3568
     34 H          -7.9250    8.2363    1.5239 H       1  LIG1        0.1424
     35 H          -9.3029    8.7851    0.7329 H       1  LIG1        0.1424
@<TRIPOS>BOND
     1    11    10    1
     2    32    24    1
     3    12    10    1
     4    29    24   ar
     5    29    28   ar
     6    10     4    1
     7    24    25   ar
     8    31    28    1
     9    28    27   ar
    10     7     3    1
    11    23    21    1
    12     4     3   ar
    13     4     5   ar
    14    25    17    1
    15    25    26   ar
    16    22    21    1
    17    18    17   ar
    18    18    13   ar
    19    17    16   ar
    20     3     2   ar
    21    20    13    1
    22    13    14   ar
    23    16    21    1
    24    16    15   ar
    25    14    15   ar
    26    14     5    1
    27    15    19    1
    28     5     6   ar
    29    27    26   ar
    30    27    33    1
    31    26    30    1
    32     2     8    1
    33     2     1   ar
    34    35    33    1
    35     6     1   ar
    36    33    34    1
    37     1     9    1
