@<TRIPOS>MOLECULE
mol_data/opt/m06hf/geoms/mol2/6ah6ah-6ah-6ah-.out
 46 49 0 0 0
SMALL
GASTEIGER

@<TRIPOS>ATOM
      1 C          -4.4999   -2.2050    0.5049 C.ar    1  LIG1        0.0284
      2 C          -3.1117   -2.2704    0.5906 C.ar    1  LIG1       -0.0418
      3 C          -2.3845   -1.1002    0.4479 C.ar    1  LIG1       -0.0375
      4 C          -3.0493    0.1122    0.2405 C.ar    1  LIG1        0.0509
      5 C          -4.4600    0.0802    0.2238 C.ar    1  LIG1        0.0930
      6 N          -5.1432   -1.0586    0.3261 N.ar    1  LIG1       -0.2531
      7 H          -1.3016   -1.1121    0.4868 H       1  LIG1        0.0637
      8 H          -2.6150   -3.2169    0.7534 H       1  LIG1        0.0633
      9 H          -5.1093   -3.0955    0.5882 H       1  LIG1        0.0830
     10 N          -2.3327    1.2948    0.0838 N.pl3   1  LIG1       -0.3563
     11 H          -1.3667    1.1677   -0.1836 H       1  LIG1        0.1424
     12 H          -2.7961    2.0090   -0.4633 H       1  LIG1        0.1424
     13 C          -4.9551    2.5428    0.6247 C.ar    1  LIG1        0.0376
     14 C          -5.2891    1.3115    0.0544 C.ar    1  LIG1        0.0220
     15 C          -6.4802    1.2274   -0.6609 C.ar    1  LIG1       -0.0283
     16 C          -7.2906    2.3499   -0.8044 C.ar    1  LIG1        0.0516
     17 C          -6.8720    3.5401   -0.1700 C.ar    1  LIG1        0.0931
     18 N          -5.7298    3.6162    0.5055 N.ar    1  LIG1       -0.2524
     19 H          -6.7656    0.2762   -1.0949 H       1  LIG1        0.0644
     20 H          -4.0553    2.6579    1.2165 H       1  LIG1        0.0836
     21 N          -8.4844    2.2881   -1.5273 N.pl3   1  LIG1       -0.3563
     22 H          -8.7342    3.1550   -1.9875 H       1  LIG1        0.1424
     23 H          -8.5388    1.4965   -2.1539 H       1  LIG1        0.1424
     24 C          -7.0304    6.0199   -0.4086 C.ar    1  LIG1        0.0376
     25 C          -7.6789    4.7945   -0.2313 C.ar    1  LIG1        0.0220
     26 C          -9.0622    4.8039   -0.0819 C.ar    1  LIG1       -0.0283
     27 C          -9.7563    6.0152   -0.1083 C.ar    1  LIG1        0.0516
     28 C          -9.0037    7.1947   -0.2729 C.ar    1  LIG1        0.0931
     29 N          -7.6816    7.1736   -0.4367 N.ar    1  LIG1       -0.2524
     30 H          -9.6009    3.8739    0.0652 H       1  LIG1        0.0644
     31 H          -5.9545    6.0507   -0.5197 H       1  LIG1        0.0836
     32 N         -11.1443    6.0461    0.0521 N.pl3   1  LIG1       -0.3563
     33 H         -11.5971    6.8198   -0.4192 H       1  LIG1        0.1424
     34 H         -11.5988    5.1635   -0.1387 H       1  LIG1        0.1424
     35 C          -9.2134    9.4846   -1.2386 C.ar    1  LIG1        0.0369
     36 C          -9.6479    8.5416   -0.3030 C.ar    1  LIG1        0.0220
     37 C         -10.6458    8.9082    0.5976 C.ar    1  LIG1       -0.0289
     38 C         -11.1867   10.1939    0.5288 C.ar    1  LIG1        0.0435
     39 C         -10.6888   11.0490   -0.4629 C.ar    1  LIG1        0.0482
     40 N          -9.7320   10.7053   -1.3159 N.ar    1  LIG1       -0.2608
     41 H         -10.9824    8.2087    1.3553 H       1  LIG1        0.0643
     42 H         -11.0838   12.0558   -0.5533 H       1  LIG1        0.0848
     43 H          -8.4213    9.2292   -1.9302 H       1  LIG1        0.0836
     44 N         -12.1413   10.6369    1.4408 N.pl3   1  LIG1       -0.3568
     45 H         -12.7033   11.4175    1.1327 H       1  LIG1        0.1424
     46 H         -12.6896    9.9126    1.8810 H       1  LIG1        0.1424
@<TRIPOS>BOND
     1    23    21    1
     2    22    21    1
     3    43    35    1
     4    21    16    1
     5    40    35   ar
     6    40    39   ar
     7    35    36   ar
     8    19    15    1
     9    16    15   ar
    10    16    17   ar
    11    15    14   ar
    12    42    39    1
    13    31    24    1
    14    12    10    1
    15    39    38   ar
    16    29    24   ar
    17    29    28   ar
    18    33    32    1
    19    24    25   ar
    20    36    28    1
    21    36    37   ar
    22    28    27   ar
    23    25    17    1
    24    25    26   ar
    25    11    10    1
    26    17    18   ar
    27    34    32    1
    28    27    26   ar
    29    27    32    1
    30    26    30    1
    31    14     5    1
    32    14    13   ar
    33    10     4    1
    34     5     4   ar
    35     5     6   ar
    36     4     3   ar
    37     6     1   ar
    38     3     7    1
    39     3     2   ar
    40     1     9    1
    41     1     2   ar
    42    18    13   ar
    43    38    37   ar
    44    38    44    1
    45     2     8    1
    46    37    41    1
    47    13    20    1
    48    45    44    1
    49    44    46    1
