@<TRIPOS>MOLECULE
mol_data/opt/m06hf/geoms/mol2/6ah6ah.out
 24 25 0 0 0
SMALL
GASTEIGER

@<TRIPOS>ATOM
      1 C          -4.5174   -2.0245    0.6290 C.ar    1  LIG1        0.0284
      2 C          -3.1483   -2.1033    0.3930 C.ar    1  LIG1       -0.0418
      3 C          -2.4898   -0.9782   -0.0795 C.ar    1  LIG1       -0.0375
      4 C          -3.2049    0.2024   -0.2904 C.ar    1  LIG1        0.0509
      5 C          -4.5799    0.1924    0.0226 C.ar    1  LIG1        0.0930
      6 N          -5.2053   -0.9027    0.4464 N.ar    1  LIG1       -0.2531
      7 H          -1.4279   -1.0050   -0.2931 H       1  LIG1        0.0637
      8 H          -2.6137   -3.0273    0.5649 H       1  LIG1        0.0633
      9 H          -5.0767   -2.8824    0.9787 H       1  LIG1        0.0830
     10 N          -2.5720    1.3518   -0.7683 N.pl3   1  LIG1       -0.3563
     11 H          -1.7121    1.1704   -1.2681 H       1  LIG1        0.1424
     12 H          -3.1854    1.9779   -1.2755 H       1  LIG1        0.1424
     13 C          -6.7049    1.2924   -0.6840 C.ar    1  LIG1        0.0369
     14 C          -5.4267    1.4130   -0.1329 C.ar    1  LIG1        0.0220
     15 C          -5.0026    2.6696    0.2946 C.ar    1  LIG1       -0.0289
     16 C          -5.8581    3.7638    0.1495 C.ar    1  LIG1        0.0435
     17 C          -7.1103    3.5279   -0.4326 C.ar    1  LIG1        0.0482
     18 N          -7.5198    2.3309   -0.8333 N.ar    1  LIG1       -0.2608
     19 H          -4.0282    2.7915    0.7553 H       1  LIG1        0.0643
     20 H          -7.8053    4.3507   -0.5657 H       1  LIG1        0.0848
     21 H          -7.0636    0.3220   -1.0010 H       1  LIG1        0.0836
     22 N          -5.5121    5.0298    0.6150 N.pl3   1  LIG1       -0.3568
     23 H          -4.5211    5.2051    0.6953 H       1  LIG1        0.1424
     24 H          -6.0091    5.7981    0.1878 H       1  LIG1        0.1424
@<TRIPOS>BOND
     1    12    10    1
     2    11    10    1
     3    21    13    1
     4    18    13   ar
     5    18    17   ar
     6    10     4    1
     7    13    14   ar
     8    20    17    1
     9    17    16   ar
    10     7     3    1
    11     4     3   ar
    12     4     5   ar
    13    14     5    1
    14    14    15   ar
    15     3     2   ar
    16     5     6   ar
    17    16    15   ar
    18    16    22    1
    19    24    22    1
    20    15    19    1
    21     2     8    1
    22     2     1   ar
    23     6     1   ar
    24    22    23    1
    25     1     9    1
