@<TRIPOS>MOLECULE
mol_data/opt/m06hf/geoms/mol2/6ah6ah6ah-6ah-.out
 46 49 0 0 0
SMALL
GASTEIGER

@<TRIPOS>ATOM
      1 C          -4.3542   -2.0077    1.1993 C.ar    1  LIG1        0.0284
      2 C          -3.1238   -2.2632    0.6013 C.ar    1  LIG1       -0.0418
      3 C          -2.5750   -1.2960   -0.2266 C.ar    1  LIG1       -0.0375
      4 C          -3.2519   -0.0910   -0.4255 C.ar    1  LIG1        0.0509
      5 C          -4.4681    0.0900    0.2637 C.ar    1  LIG1        0.0930
      6 N          -5.0006   -0.8601    1.0291 N.ar    1  LIG1       -0.2531
      7 H          -1.6288   -1.4667   -0.7265 H       1  LIG1        0.0637
      8 H          -2.6153   -3.2021    0.7703 H       1  LIG1        0.0633
      9 H          -4.8318   -2.7418    1.8352 H       1  LIG1        0.0830
     10 N          -2.7255    0.9007   -1.2576 N.pl3   1  LIG1       -0.3563
     11 H          -2.0489    0.5547   -1.9248 H       1  LIG1        0.1424
     12 H          -3.4295    1.4793   -1.7008 H       1  LIG1        0.1424
     13 C          -6.6492    1.2879    0.0593 C.ar    1  LIG1        0.0376
     14 C          -5.2554    1.3541    0.1561 C.ar    1  LIG1        0.0220
     15 C          -4.6649    2.6120    0.1835 C.ar    1  LIG1       -0.0283
     16 C          -5.4588    3.7620    0.1248 C.ar    1  LIG1        0.0516
     17 C          -6.8545    3.5832    0.0592 C.ar    1  LIG1        0.0931
     18 N          -7.4080    2.3704    0.0038 N.ar    1  LIG1       -0.2524
     19 H          -3.5870    2.7067    0.2635 H       1  LIG1        0.0644
     20 H          -7.1429    0.3253    0.0382 H       1  LIG1        0.0836
     21 N          -4.8714    5.0241    0.1599 N.pl3   1  LIG1       -0.3563
     22 H          -3.8894    5.0359   -0.0774 H       1  LIG1        0.1424
     23 H          -5.3945    5.7540   -0.3067 H       1  LIG1        0.1424
     24 C          -7.6322    5.9084    0.7375 C.ar    1  LIG1        0.0376
     25 C          -7.8131    4.7273    0.0125 C.ar    1  LIG1        0.0220
     26 C          -8.9725    4.6015   -0.7477 C.ar    1  LIG1       -0.0283
     27 C          -9.9004    5.6381   -0.7837 C.ar    1  LIG1        0.0516
     28 C          -9.6306    6.7815   -0.0005 C.ar    1  LIG1        0.0931
     29 N          -8.5200    6.8977    0.7198 N.ar    1  LIG1       -0.2524
     30 H          -9.1411    3.6844   -1.2997 H       1  LIG1        0.0644
     31 H          -6.7659    6.0462    1.3729 H       1  LIG1        0.0836
     32 N         -11.0649    5.5356   -1.5481 N.pl3   1  LIG1       -0.3563
     33 H         -11.4169    6.4240   -1.8837 H       1  LIG1        0.1424
     34 H         -11.0111    4.8430   -2.2824 H       1  LIG1        0.1424
     35 C         -10.0630    9.2382    0.0238 C.ar    1  LIG1        0.0369
     36 C         -10.5736    7.9382    0.0510 C.ar    1  LIG1        0.0220
     37 C         -11.9515    7.7665    0.1681 C.ar    1  LIG1       -0.0289
     38 C         -12.7742    8.8922    0.2413 C.ar    1  LIG1        0.0435
     39 C         -12.1541   10.1471    0.1878 C.ar    1  LIG1        0.0482
     40 N         -10.8416   10.3132    0.0833 N.ar    1  LIG1       -0.2608
     41 H         -12.3754    6.7695    0.2205 H       1  LIG1        0.0643
     42 H         -12.7567   11.0481    0.2425 H       1  LIG1        0.0848
     43 H          -8.9944    9.3955   -0.0420 H       1  LIG1        0.0836
     44 N         -14.1515    8.7833    0.4179 N.pl3   1  LIG1       -0.3568
     45 H         -14.6894    9.5853    0.1229 H       1  LIG1        0.1424
     46 H         -14.5592    7.9096    0.1183 H       1  LIG1        0.1424
@<TRIPOS>BOND
     1    34    32    1
     2    11    10    1
     3    33    32    1
     4    12    10    1
     5    32    27    1
     6    30    26    1
     7    10     4    1
     8    27    26   ar
     9    27    28   ar
    10    26    25   ar
    11     7     3    1
    12     4     3   ar
    13     4     5   ar
    14    23    21    1
    15     3     2   ar
    16    22    21    1
    17    43    35    1
    18    28    36    1
    19    28    29   ar
    20    18    17   ar
    21    18    13   ar
    22    25    17    1
    23    25    24   ar
    24    35    36   ar
    25    35    40   ar
    26    20    13    1
    27    36    37   ar
    28    17    16   ar
    29    13    14   ar
    30    40    39   ar
    31    46    44    1
    32    45    44    1
    33    16    21    1
    34    16    15   ar
    35    14    15   ar
    36    14     5    1
    37    37    41    1
    38    37    38   ar
    39    15    19    1
    40    39    38   ar
    41    39    42    1
    42    38    44    1
    43     5     6   ar
    44     2     8    1
    45     2     1   ar
    46    29    24   ar
    47    24    31    1
    48     6     1   ar
    49     1     9    1
