@<TRIPOS>MOLECULE
mol_data/opt/m06hf/geoms/mol2/6ah6ah-6ah.out
 35 37 0 0 0
SMALL
GASTEIGER

@<TRIPOS>ATOM
      1 C          -4.4952   -2.1309    0.5018 C.ar    1  LIG1        0.0284
      2 C          -3.1242   -2.2090    0.2746 C.ar    1  LIG1       -0.0418
      3 C          -2.4441   -1.0534   -0.0741 C.ar    1  LIG1       -0.0375
      4 C          -3.1352    0.1577   -0.1711 C.ar    1  LIG1        0.0509
      5 C          -4.5140    0.1406    0.1271 C.ar    1  LIG1        0.0930
      6 N          -5.1602   -0.9848    0.4261 N.ar    1  LIG1       -0.2531
      7 H          -1.3803   -1.0760   -0.2793 H       1  LIG1        0.0637
      8 H          -2.6060   -3.1546    0.3575 H       1  LIG1        0.0633
      9 H          -5.0727   -3.0102    0.7559 H       1  LIG1        0.0830
     10 N          -2.4697    1.3285   -0.5275 N.pl3   1  LIG1       -0.3563
     11 H          -1.5975    1.1794   -1.0154 H       1  LIG1        0.1424
     12 H          -3.0493    2.0265   -0.9763 H       1  LIG1        0.1424
     13 C          -4.9067    2.6189    0.5424 C.ar    1  LIG1        0.0376
     14 C          -5.3554    1.3748    0.0894 C.ar    1  LIG1        0.0220
     15 C          -6.6641    1.2857   -0.3713 C.ar    1  LIG1       -0.0283
     16 C          -7.4831    2.4135   -0.3895 C.ar    1  LIG1        0.0516
     17 C          -6.9395    3.6179    0.1101 C.ar    1  LIG1        0.0931
     18 N          -5.6840    3.6960    0.5418 N.ar    1  LIG1       -0.2524
     19 H          -7.0375    0.3263   -0.7096 H       1  LIG1        0.0644
     20 H          -3.9066    2.7412    0.9391 H       1  LIG1        0.0836
     21 N          -8.7877    2.3322   -0.8659 N.pl3   1  LIG1       -0.3563
     22 H          -9.1627    3.1942   -1.2402 H       1  LIG1        0.1424
     23 H          -8.9669    1.5346   -1.4597 H       1  LIG1        0.1424
     24 C          -9.0749    4.9345    0.5017 C.ar    1  LIG1        0.0369
     25 C          -7.7210    4.8910    0.1568 C.ar    1  LIG1        0.0220
     26 C          -7.0634    6.0923   -0.1001 C.ar    1  LIG1       -0.0289
     27 C          -7.7738    7.2882   -0.0417 C.ar    1  LIG1        0.0435
     28 C          -9.1350    7.2119    0.2942 C.ar    1  LIG1        0.0482
     29 N          -9.7593    6.0765    0.5642 N.ar    1  LIG1       -0.2608
     30 H          -6.0034    6.0774   -0.3236 H       1  LIG1        0.0643
     31 H          -9.7249    8.1211    0.3568 H       1  LIG1        0.0848
     32 H          -9.6122    4.0298    0.7575 H       1  LIG1        0.0836
     33 N          -7.1621    8.5206   -0.2530 N.pl3   1  LIG1       -0.3568
     34 H          -6.3138    8.4934   -0.7996 H       1  LIG1        0.1424
     35 H          -7.7809    9.2675   -0.5340 H       1  LIG1        0.1424
@<TRIPOS>BOND
     1    23    21    1
     2    22    21    1
     3    11    10    1
     4    12    10    1
     5    21    16    1
     6    34    33    1
     7    19    15    1
     8    35    33    1
     9    10     4    1
    10    16    15   ar
    11    16    17   ar
    12    15    14   ar
    13    30    26    1
    14     7     3    1
    15    33    27    1
    16     4     3   ar
    17     4     5   ar
    18    26    27   ar
    19    26    25   ar
    20     3     2   ar
    21    27    28   ar
    22    14     5    1
    23    14    13   ar
    24    17    25    1
    25    17    18   ar
    26     5     6   ar
    27    25    24   ar
    28     2     8    1
    29     2     1   ar
    30    28    31    1
    31    28    29   ar
    32     6     1   ar
    33    24    29   ar
    34    24    32    1
    35     1     9    1
    36    18    13   ar
    37    13    20    1
