@<TRIPOS>MOLECULE
mol_data/opt/m06hf/geoms/mol2/6ah6ah-4ah6ah.out
 47 50 0 0 0
SMALL
GASTEIGER

@<TRIPOS>ATOM
      1 C          -4.5768   -2.2907    0.0871 C.ar    1  LIG1        0.0284
      2 C          -3.1926   -2.3884    0.1983 C.ar    1  LIG1       -0.0418
      3 C          -2.4467   -1.2212    0.2180 C.ar    1  LIG1       -0.0375
      4 C          -3.0907    0.0173    0.1449 C.ar    1  LIG1        0.0509
      5 C          -4.5007    0.0105    0.0869 C.ar    1  LIG1        0.0930
      6 N          -5.2010   -1.1207    0.0335 N.ar    1  LIG1       -0.2531
      7 H          -1.3654   -1.2547    0.2827 H       1  LIG1        0.0637
      8 H          -2.7126   -3.3557    0.2559 H       1  LIG1        0.0633
      9 H          -5.1998   -3.1747    0.0458 H       1  LIG1        0.0830
     10 N          -2.3560    1.1999    0.1506 N.pl3   1  LIG1       -0.3563
     11 H          -1.3908    1.0945   -0.1291 H       1  LIG1        0.1424
     12 H          -2.8083    1.9845   -0.3009 H       1  LIG1        0.1424
     13 C          -4.9801    2.4094    0.7795 C.ar    1  LIG1        0.0376
     14 C          -5.3041    1.2692    0.0399 C.ar    1  LIG1        0.0220
     15 C          -6.4575    1.3061   -0.7375 C.ar    1  LIG1       -0.0283
     16 C          -7.2412    2.4565   -0.7743 C.ar    1  LIG1        0.0515
     17 C          -6.8366    3.5482    0.0266 C.ar    1  LIG1        0.0916
     18 N          -5.7289    3.5071    0.7605 N.ar    1  LIG1       -0.2525
     19 H          -6.7374    0.4263   -1.3049 H       1  LIG1        0.0644
     20 H          -4.1090    2.4273    1.4233 H       1  LIG1        0.0836
     21 N          -8.3921    2.5086   -1.5621 N.pl3   1  LIG1       -0.3563
     22 H          -8.6433    3.4409   -1.8669 H       1  LIG1        0.1424
     23 H          -8.4009    1.8383   -2.3184 H       1  LIG1        0.1424
     24 C          -6.9169    6.0375    0.1097 C.ar    1  LIG1       -0.0518
     25 C          -7.6297    7.2245    0.1841 C.ar    1  LIG1       -0.0516
     26 C          -7.6126    4.8266    0.0803 C.ar    1  LIG1        0.0039
     27 C          -9.0255    7.2419    0.2446 C.ar    1  LIG1        0.0043
     28 H          -7.1031    8.1705    0.2211 H       1  LIG1        0.0624
     29 C          -9.0044    4.8249    0.1480 C.ar    1  LIG1       -0.0312
     30 C          -9.7269    6.0228    0.2306 C.ar    1  LIG1        0.0330
     31 H          -9.5404    3.8823    0.1621 H       1  LIG1        0.0643
     32 H          -5.8362    6.0276    0.0944 H       1  LIG1        0.0624
     33 N         -11.1148    5.9867    0.3336 N.pl3   1  LIG1       -0.3575
     34 H         -11.5961    6.8247    0.0365 H       1  LIG1        0.1423
     35 H         -11.5490    5.1366    0.0059 H       1  LIG1        0.1423
     36 C         -10.6851    8.8054    1.3218 C.ar    1  LIG1        0.0354
     37 C          -9.7434    8.5478    0.3190 C.ar    1  LIG1        0.0037
     38 C          -9.4633    9.5629   -0.5943 C.ar    1  LIG1       -0.0303
     39 C         -10.1162   10.7905   -0.4840 C.ar    1  LIG1        0.0435
     40 C         -11.0433   10.9322    0.5591 C.ar    1  LIG1        0.0482
     41 N         -11.3181    9.9712    1.4290 N.ar    1  LIG1       -0.2608
     42 H          -8.7448    9.3923   -1.3884 H       1  LIG1        0.0643
     43 H         -11.5726   11.8714    0.6846 H       1  LIG1        0.0848
     44 H         -10.9203    8.0455    2.0571 H       1  LIG1        0.0836
     45 N          -9.8363   11.8535   -1.3380 N.pl3   1  LIG1       -0.3568
     46 H          -9.4468   11.5983   -2.2340 H       1  LIG1        0.1424
     47 H         -10.5667   12.5466   -1.4174 H       1  LIG1        0.1424
@<TRIPOS>BOND
     1    23    21    1
     2    46    45    1
     3    22    21    1
     4    21    16    1
     5    47    45    1
     6    42    38    1
     7    45    39    1
     8    19    15    1
     9    16    15   ar
    10    16    17   ar
    11    15    14   ar
    12    38    39   ar
    13    38    37   ar
    14    39    40   ar
    15    12    10    1
    16    11    10    1
    17    35    33    1
    18    17    26    1
    19    17    18   ar
    20     6     5   ar
    21     6     1   ar
    22    34    33    1
    23    14     5    1
    24    14    13   ar
    25     9     1    1
    26    26    24   ar
    27    26    29   ar
    28     5     4   ar
    29     1     2   ar
    30    32    24    1
    31    24    25   ar
    32     4    10    1
    33     4     3   ar
    34    29    31    1
    35    29    30   ar
    36    25    28    1
    37    25    27   ar
    38     2     3   ar
    39     2     8    1
    40     3     7    1
    41    30    27   ar
    42    30    33    1
    43    27    37    1
    44    37    36   ar
    45    40    43    1
    46    40    41   ar
    47    18    13   ar
    48    13    20    1
    49    36    41   ar
    50    36    44    1
