@<TRIPOS>MOLECULE
mol_data/opt/m06hf/geoms/mol2/6ah6ah-6ah6ah-.out
 46 49 0 0 0
SMALL
GASTEIGER

@<TRIPOS>ATOM
      1 C          -4.4336   -2.1734    0.6563 C.ar    1  LIG1        0.0284
      2 C          -3.0666   -2.2722    0.4112 C.ar    1  LIG1       -0.0418
      3 C          -2.3866   -1.1403   -0.0072 C.ar    1  LIG1       -0.0375
      4 C          -3.0722    0.0687   -0.1578 C.ar    1  LIG1        0.0509
      5 C          -4.4454    0.0770    0.1666 C.ar    1  LIG1        0.0930
      6 N          -5.0918   -1.0282    0.5334 N.ar    1  LIG1       -0.2531
      7 H          -1.3267   -1.1814   -0.2296 H       1  LIG1        0.0637
      8 H          -2.5528   -3.2156    0.5341 H       1  LIG1        0.0633
      9 H          -5.0121   -3.0346    0.9639 H       1  LIG1        0.0830
     10 N          -2.4060    1.2120   -0.5919 N.pl3   1  LIG1       -0.3563
     11 H          -1.5375    1.0307   -1.0753 H       1  LIG1        0.1424
     12 H          -2.9863    1.8856   -1.0755 H       1  LIG1        0.1424
     13 C          -4.8160    2.5808    0.4371 C.ar    1  LIG1        0.0376
     14 C          -5.2835    1.3110    0.0839 C.ar    1  LIG1        0.0220
     15 C          -6.6102    1.1968   -0.3168 C.ar    1  LIG1       -0.0283
     16 C          -7.4290    2.3231   -0.3708 C.ar    1  LIG1        0.0516
     17 C          -6.8660    3.5551    0.0311 C.ar    1  LIG1        0.0931
     18 N          -5.5928    3.6575    0.4021 N.ar    1  LIG1       -0.2524
     19 H          -6.9968    0.2192   -0.5791 H       1  LIG1        0.0644
     20 H          -3.8003    2.7255    0.7841 H       1  LIG1        0.0836
     21 N          -8.7538    2.2184   -0.7854 N.pl3   1  LIG1       -0.3563
     22 H          -9.1299    3.0461   -1.2296 H       1  LIG1        0.1424
     23 H          -8.9663    1.3708   -1.2924 H       1  LIG1        0.1424
     24 C          -8.9917    4.9022    0.4077 C.ar    1  LIG1        0.0376
     25 C          -7.6448    4.8296    0.0395 C.ar    1  LIG1        0.0220
     26 C          -6.9988    6.0159   -0.2914 C.ar    1  LIG1       -0.0283
     27 C          -7.6898    7.2261   -0.2688 C.ar    1  LIG1        0.0516
     28 C          -9.0438    7.1922    0.1356 C.ar    1  LIG1        0.0931
     29 N          -9.6550    6.0523    0.4445 N.ar    1  LIG1       -0.2524
     30 H          -5.9499    5.9845   -0.5619 H       1  LIG1        0.0644
     31 H          -9.5371    4.0156    0.7061 H       1  LIG1        0.0836
     32 N          -7.0516    8.4135   -0.6135 N.pl3   1  LIG1       -0.3563
     33 H          -6.1971    8.2929   -1.1386 H       1  LIG1        0.1424
     34 H          -7.6531    9.1307   -0.9977 H       1  LIG1        0.1424
     35 C          -9.4057    9.6486    0.6714 C.ar    1  LIG1        0.0369
     36 C          -9.8911    8.4209    0.2140 C.ar    1  LIG1        0.0220
     37 C         -11.2388    8.3267   -0.1295 C.ar    1  LIG1       -0.0289
     38 C         -12.0485    9.4554   -0.0410 C.ar    1  LIG1        0.0435
     39 C         -11.4495   10.6428    0.4100 C.ar    1  LIG1        0.0482
     40 N         -10.1767   10.7326    0.7607 N.ar    1  LIG1       -0.2608
     41 H         -11.6378    7.3695   -0.4431 H       1  LIG1        0.0643
     42 H         -12.0460   11.5454    0.4989 H       1  LIG1        0.0848
     43 H          -8.3784    9.7538    0.9971 H       1  LIG1        0.0836
     44 N         -13.4086    9.4153   -0.3329 N.pl3   1  LIG1       -0.3568
     45 H         -13.8203   10.2966   -0.6040 H       1  LIG1        0.1424
     46 H         -13.7023    8.6500   -0.9220 H       1  LIG1        0.1424
@<TRIPOS>BOND
     1    23    21    1
     2    22    21    1
     3    33    32    1
     4    12    10    1
     5    11    10    1
     6    34    32    1
     7    46    44    1
     8    21    16    1
     9    32    27    1
    10    45    44    1
    11    10     4    1
    12    19    15    1
    13    30    26    1
    14    41    37    1
    15    16    15   ar
    16    16    17   ar
    17    44    38    1
    18    15    14   ar
    19    26    27   ar
    20    26    25   ar
    21    27    28   ar
    22     7     3    1
    23     4     3   ar
    24     4     5   ar
    25    37    38   ar
    26    37    36   ar
    27    38    39   ar
    28     3     2   ar
    29    17    25    1
    30    17    18   ar
    31    25    24   ar
    32    14     5    1
    33    14    13   ar
    34    28    36    1
    35    28    29   ar
    36     5     6   ar
    37    36    35   ar
    38    18    13   ar
    39    24    29   ar
    40    24    31    1
    41    39    42    1
    42    39    40   ar
    43     2     8    1
    44     2     1   ar
    45    13    20    1
    46     6     1   ar
    47     1     9    1
    48    35    40   ar
    49    35    43    1
