@<TRIPOS>MOLECULE
mol_data/opt/m06hf/geoms/mol2/6ah6ah-.out
 24 25 0 0 0
SMALL
GASTEIGER

@<TRIPOS>ATOM
      1 C          -4.4937   -2.0474    0.4980 C.ar    1  LIG1        0.0284
      2 C          -3.1371   -2.1099    0.1929 C.ar    1  LIG1       -0.0418
      3 C          -2.4884   -0.9439   -0.1790 C.ar    1  LIG1       -0.0375
      4 C          -3.1943    0.2622   -0.2245 C.ar    1  LIG1        0.0509
      5 C          -4.5550    0.2283    0.1462 C.ar    1  LIG1        0.0930
      6 N          -5.1717   -0.9068    0.4702 N.ar    1  LIG1       -0.2531
      7 H          -1.4372   -0.9547   -0.4426 H       1  LIG1        0.0637
      8 H          -2.6067   -3.0515    0.2346 H       1  LIG1        0.0633
      9 H          -5.0486   -2.9346    0.7747 H       1  LIG1        0.0830
     10 N          -2.5567    1.4410   -0.6012 N.pl3   1  LIG1       -0.3563
     11 H          -1.7181    1.3051   -1.1481 H       1  LIG1        0.1424
     12 H          -3.1647    2.1500   -0.9908 H       1  LIG1        0.1424
     13 C          -4.9496    2.6927    0.6134 C.ar    1  LIG1        0.0369
     14 C          -5.4111    1.4536    0.1609 C.ar    1  LIG1        0.0220
     15 C          -6.7415    1.3476   -0.2391 C.ar    1  LIG1       -0.0289
     16 C          -7.5580    2.4750   -0.2083 C.ar    1  LIG1        0.0435
     17 C          -6.9827    3.6739    0.2443 C.ar    1  LIG1        0.0482
     18 N          -5.7263    3.7753    0.6474 N.ar    1  LIG1       -0.2608
     19 H          -7.1236    0.3831   -0.5511 H       1  LIG1        0.0643
     20 H          -7.5847    4.5759    0.2888 H       1  LIG1        0.0848
     21 H          -3.9370    2.8084    0.9800 H       1  LIG1        0.0836
     22 N          -8.9031    2.4219   -0.5587 N.pl3   1  LIG1       -0.3568
     23 H          -9.3139    3.2990   -0.8433 H       1  LIG1        0.1424
     24 H          -9.1664    1.6527   -1.1568 H       1  LIG1        0.1424
@<TRIPOS>BOND
     1    24    22    1
     2    11    10    1
     3    12    10    1
     4    23    22    1
     5    10     4    1
     6    22    16    1
     7    19    15    1
     8     7     3    1
     9    15    16   ar
    10    15    14   ar
    11     4     3   ar
    12     4     5   ar
    13    16    17   ar
    14     3     2   ar
    15     5    14    1
    16     5     6   ar
    17    14    13   ar
    18     2     8    1
    19     2     1   ar
    20    17    20    1
    21    17    18   ar
    22     6     1   ar
    23     1     9    1
    24    13    18   ar
    25    13    21    1
