@<TRIPOS>MOLECULE
mol_data/opt/m06hf/geoms/mol2/6ah6ah6ah-6ah.out
 46 49 0 0 0
SMALL
GASTEIGER

@<TRIPOS>ATOM
      1 C          -4.2773   -1.9834    1.2517 C.ar    1  LIG1        0.0284
      2 C          -3.0692   -2.2459    0.6129 C.ar    1  LIG1       -0.0418
      3 C          -2.5583   -1.2942   -0.2562 C.ar    1  LIG1       -0.0375
      4 C          -3.2511   -0.0988   -0.4583 C.ar    1  LIG1        0.0509
      5 C          -4.4416    0.0917    0.2726 C.ar    1  LIG1        0.0930
      6 N          -4.9366   -0.8438    1.0800 N.ar    1  LIG1       -0.2531
      7 H          -1.6310   -1.4709   -0.7884 H       1  LIG1        0.0637
      8 H          -2.5492   -3.1782    0.7833 H       1  LIG1        0.0633
      9 H          -4.7250   -2.7046    1.9229 H       1  LIG1        0.0830
     10 N          -2.7640    0.8746   -1.3354 N.pl3   1  LIG1       -0.3563
     11 H          -2.1051    0.5157   -2.0136 H       1  LIG1        0.1424
     12 H          -3.4888    1.4295   -1.7746 H       1  LIG1        0.1424
     13 C          -6.6420    1.2607    0.1466 C.ar    1  LIG1        0.0376
     14 C          -5.2454    1.3450    0.1658 C.ar    1  LIG1        0.0220
     15 C          -4.6705    2.6096    0.1215 C.ar    1  LIG1       -0.0283
     16 C          -5.4825    3.7472    0.0656 C.ar    1  LIG1        0.0516
     17 C          -6.8770    3.5515    0.0799 C.ar    1  LIG1        0.0931
     18 N          -7.4172    2.3316    0.0955 N.ar    1  LIG1       -0.2524
     19 H          -3.5916    2.7202    0.1418 H       1  LIG1        0.0644
     20 H          -7.1236    0.2925    0.1850 H       1  LIG1        0.0836
     21 N          -4.9108    5.0172    0.0233 N.pl3   1  LIG1       -0.3563
     22 H          -3.9459    5.0309   -0.2762 H       1  LIG1        0.1424
     23 H          -5.4722    5.7217   -0.4375 H       1  LIG1        0.1424
     24 C          -7.6473    5.8940    0.7092 C.ar    1  LIG1        0.0376
     25 C          -7.8495    4.6840    0.0391 C.ar    1  LIG1        0.0220
     26 C          -9.0400    4.5216   -0.6618 C.ar    1  LIG1       -0.0283
     27 C          -9.9819    5.5481   -0.6981 C.ar    1  LIG1        0.0516
     28 C          -9.6895    6.7231    0.0304 C.ar    1  LIG1        0.0931
     29 N          -8.5453    6.8728    0.6918 N.ar    1  LIG1       -0.2524
     30 H          -9.2252    3.5832   -1.1711 H       1  LIG1        0.0644
     31 H          -6.7539    6.0645    1.2973 H       1  LIG1        0.0836
     32 N         -11.1677    5.3967   -1.4100 N.pl3   1  LIG1       -0.3563
     33 H         -11.5772    6.2564   -1.7517 H       1  LIG1        0.1424
     34 H         -11.1468    4.6664   -2.1077 H       1  LIG1        0.1424
     35 C         -12.0118    7.7391    0.1692 C.ar    1  LIG1        0.0369
     36 C         -10.6248    7.8875    0.0841 C.ar    1  LIG1        0.0220
     37 C         -10.0925    9.1751    0.1067 C.ar    1  LIG1       -0.0289
     38 C         -10.9504   10.2692    0.1775 C.ar    1  LIG1        0.0435
     39 C         -12.3280   10.0038    0.2352 C.ar    1  LIG1        0.0482
     40 N         -12.8383    8.7825    0.2398 N.ar    1  LIG1       -0.2608
     41 H          -9.0168    9.3022    0.0874 H       1  LIG1        0.0643
     42 H         -13.0320   10.8280    0.2956 H       1  LIG1        0.0848
     43 H         -12.4636    6.7557    0.2059 H       1  LIG1        0.0836
     44 N         -10.4775   11.5765    0.2411 N.pl3   1  LIG1       -0.3568
     45 H          -9.5459   11.7179   -0.1205 H       1  LIG1        0.1424
     46 H         -11.1262   12.2876   -0.0639 H       1  LIG1        0.1424
@<TRIPOS>BOND
     1    34    32    1
     2    11    10    1
     3    12    10    1
     4    33    32    1
     5    32    27    1
     6    10     4    1
     7    30    26    1
     8     7     3    1
     9    27    26   ar
    10    27    28   ar
    11    26    25   ar
    12     4     3   ar
    13     4     5   ar
    14    23    21    1
    15    22    21    1
    16     3     2   ar
    17    45    44    1
    18    46    44    1
    19    21    16    1
    20    28    36    1
    21    28    29   ar
    22    25    17    1
    23    25    24   ar
    24    16    17   ar
    25    16    15   ar
    26    17    18   ar
    27    36    37   ar
    28    36    35   ar
    29    41    37    1
    30    18    13   ar
    31    37    38   ar
    32    15    19    1
    33    15    14   ar
    34    13    14   ar
    35    13    20    1
    36    14     5    1
    37    35    43    1
    38    35    40   ar
    39    38    39   ar
    40    38    44    1
    41    39    40   ar
    42    39    42    1
    43     5     6   ar
    44     2     8    1
    45     2     1   ar
    46    29    24   ar
    47    24    31    1
    48     6     1   ar
    49     1     9    1
