@<TRIPOS>MOLECULE
mol_data/opt/m06hf/geoms/mol2/6ah6ah6ah6ah.out
 46 49 0 0 0
SMALL
GASTEIGER

@<TRIPOS>ATOM
      1 C          -4.1331   -1.7472    1.6958 C.ar    1  LIG1        0.0284
      2 C          -3.0451   -2.1683    0.9369 C.ar    1  LIG1       -0.0418
      3 C          -2.6684   -1.4097   -0.1605 C.ar    1  LIG1       -0.0375
      4 C          -3.3703   -0.2423   -0.4679 C.ar    1  LIG1        0.0509
      5 C          -4.4266    0.1240    0.3912 C.ar    1  LIG1        0.0930
      6 N          -4.7981   -0.6306    1.4228 N.ar    1  LIG1       -0.2531
      7 H          -1.8406   -1.7169   -0.7887 H       1  LIG1        0.0637
      8 H          -2.5156   -3.0755    1.1923 H       1  LIG1        0.0633
      9 H          -4.4765   -2.3184    2.5486 H       1  LIG1        0.0830
     10 N          -3.0183    0.5397   -1.5722 N.pl3   1  LIG1       -0.3563
     11 H          -2.4721    0.0429   -2.2633 H       1  LIG1        0.1424
     12 H          -3.7994    1.0288   -1.9927 H       1  LIG1        0.1424
     13 C          -6.6023    1.3470    0.3881 C.ar    1  LIG1        0.0376
     14 C          -5.2193    1.3717    0.1814 C.ar    1  LIG1        0.0220
     15 C          -4.6360    2.5822   -0.1786 C.ar    1  LIG1       -0.0283
     16 C          -5.4290    3.7233   -0.3193 C.ar    1  LIG1        0.0516
     17 C          -6.8077    3.5936   -0.0642 C.ar    1  LIG1        0.0931
     18 N          -7.3612    2.4246    0.2582 N.ar    1  LIG1       -0.2524
     19 H          -3.5655    2.6445   -0.3433 H       1  LIG1        0.0644
     20 H          -7.0874    0.4236    0.6757 H       1  LIG1        0.0836
     21 N          -4.8585    4.9491   -0.6746 N.pl3   1  LIG1       -0.3563
     22 H          -3.9457    4.8667   -1.1017 H       1  LIG1        0.1424
     23 H          -5.4748    5.5517   -1.2068 H       1  LIG1        0.1424
     24 C          -9.0059    4.5613   -0.7395 C.ar    1  LIG1        0.0376
     25 C          -7.7441    4.7510   -0.1679 C.ar    1  LIG1        0.0220
     26 C          -7.4289    6.0191    0.3096 C.ar    1  LIG1       -0.0283
     27 C          -8.3632    7.0527    0.2106 C.ar    1  LIG1        0.0516
     28 C          -9.6118    6.7495   -0.3652 C.ar    1  LIG1        0.0931
     29 N          -9.8970    5.5363   -0.8380 N.ar    1  LIG1       -0.2524
     30 H          -6.4628    6.2046    0.7673 H       1  LIG1        0.0644
     31 H          -9.2870    3.5855   -1.1132 H       1  LIG1        0.0836
     32 N          -8.0663    8.3300    0.6936 N.pl3   1  LIG1       -0.3563
     33 H          -7.0768    8.5118    0.7920 H       1  LIG1        0.1424
     34 H          -8.5463    9.0766    0.2054 H       1  LIG1        0.1424
     35 C         -11.4325    7.8173   -1.6903 C.ar    1  LIG1        0.0369
     36 C         -10.6833    7.7785   -0.5116 C.ar    1  LIG1        0.0220
     37 C         -10.9925    8.6830    0.5024 C.ar    1  LIG1       -0.0289
     38 C         -12.0243    9.6029    0.3040 C.ar    1  LIG1        0.0435
     39 C         -12.6939    9.5637   -0.9257 C.ar    1  LIG1        0.0482
     40 N         -12.4080    8.6969   -1.8890 N.ar    1  LIG1       -0.2608
     41 H         -10.4535    8.6562    1.4434 H       1  LIG1        0.0643
     42 H         -13.5015   10.2616   -1.1212 H       1  LIG1        0.0848
     43 H         -11.2279    7.1061   -2.4800 H       1  LIG1        0.0836
     44 N         -12.4182   10.4889    1.3039 N.pl3   1  LIG1       -0.3568
     45 H         -11.7194   10.6904    2.0041 H       1  LIG1        0.1424
     46 H         -12.8970   11.3177    0.9819 H       1  LIG1        0.1424
@<TRIPOS>BOND
     1    43    35    1
     2    11    10    1
     3    12    10    1
     4    40    35   ar
     5    40    39   ar
     6    35    36   ar
     7    10     4    1
     8    23    21    1
     9    42    39    1
    10    31    24    1
    11    22    21    1
    12    39    38   ar
    13    29    24   ar
    14    29    28   ar
    15     7     3    1
    16    24    25   ar
    17    21    16    1
    18    36    28    1
    19    36    37   ar
    20     4     3   ar
    21     4     5   ar
    22    28    27   ar
    23    19    15    1
    24    16    15   ar
    25    16    17   ar
    26    15    14   ar
    27    25    17    1
    28    25    26   ar
    29     3     2   ar
    30    17    18   ar
    31    14    13   ar
    32    14     5    1
    33    34    32    1
    34    27    26   ar
    35    27    32    1
    36    18    13   ar
    37    38    37   ar
    38    38    44    1
    39    26    30    1
    40    13    20    1
    41     5     6   ar
    42    37    41    1
    43    32    33    1
    44     2     8    1
    45     2     1   ar
    46    46    44    1
    47    44    45    1
    48     6     1   ar
    49     1     9    1
