@<TRIPOS>MOLECULE
mol_data/opt/m06hf/geoms/mol2/6ah6ed12ha13fh-.out
 45 48 0 0 0
SMALL
GASTEIGER

@<TRIPOS>ATOM
      1 C          -3.7328   -1.6230    1.5064 C.ar    1  LIG1        0.0284
      2 C          -2.7580   -1.9800    0.5769 C.ar    1  LIG1       -0.0418
      3 C          -2.6059   -1.2084   -0.5643 C.ar    1  LIG1       -0.0375
      4 C          -3.4264   -0.0930   -0.7530 C.ar    1  LIG1        0.0510
      5 C          -4.3659    0.1894    0.2563 C.ar    1  LIG1        0.0942
      6 N          -4.5121   -0.5608    1.3429 N.ar    1  LIG1       -0.2530
      7 H          -1.8619   -1.4602   -1.3107 H       1  LIG1        0.0637
      8 H          -2.1348   -2.8475    0.7442 H       1  LIG1        0.0633
      9 H          -3.8858   -2.2010    2.4081 H       1  LIG1        0.0830
     10 N          -3.2926    0.7322   -1.8667 N.pl3   1  LIG1       -0.3563
     11 H          -2.8149    0.3101   -2.6507 H       1  LIG1        0.1424
     12 H          -4.1383    1.2132   -2.1449 H       1  LIG1        0.1424
     13 C          -6.6543    1.2927    0.2025 C.ar    1  LIG1        0.1232
     14 C          -5.2479    1.3897    0.1513 C.ar    1  LIG1        0.0372
     15 C          -4.7160    2.6612    0.0075 C.ar    1  LIG1       -0.0302
     16 C          -5.5695    3.7642   -0.0337 C.ar    1  LIG1        0.0815
     17 C          -6.9569    3.5786    0.1279 C.ar    1  LIG1        0.1265
     18 N          -7.4643    2.3415    0.2024 N.ar    1  LIG1       -0.2333
     19 H          -3.6463    2.7977   -0.0968 H       1  LIG1        0.0638
     20 C          -7.2897   -0.0106    0.2368 C.1     1  LIG1       -0.0491
     21 C          -7.8133   -1.0902    0.2435 C.1     1  LIG1       -0.1124
     22 H          -8.2764   -2.0495    0.2635 H       1  LIG1        0.1232
     23 N          -4.5552    6.0845   -0.5772 N.1     1  LIG1       -0.1908
     24 C          -5.0117    5.0589   -0.3297 C.1     1  LIG1        0.1014
     25 C          -7.9192    4.6659    0.2117 C.ar    1  LIG1        0.1757
     26 C          -7.9276    5.9312    0.7664 C.ar    1  LIG1        0.0732
     27 C          -9.2845    6.3964    0.6730 C.ar    1  LIG1        0.0072
     28 C          -9.9857    5.3904    0.0840 C.ar    1  LIG1        0.1573
     29 O          -9.1889    4.3523   -0.1990 O.2     1  LIG1       -0.4497
     30 N          -6.9241    6.6229    1.4169 N.pl3   1  LIG1       -0.3550
     31 H          -5.9989    6.5862    1.0121 H       1  LIG1        0.1424
     32 H          -7.1900    7.5610    1.6782 H       1  LIG1        0.1424
     33 H          -9.6829    7.3390    1.0083 H       1  LIG1        0.0675
     34 C         -11.3764    5.2484   -0.2803 C.ar    1  LIG1        0.1260
     35 C         -12.4302    6.1274   -0.1869 C.ar    1  LIG1        0.1659
     36 C         -13.5889    5.4753   -0.6756 C.ar    1  LIG1        0.0849
     37 C         -13.2034    4.2033   -1.0556 C.ar    1  LIG1        0.0268
     38 N         -11.8756    4.0825   -0.8132 N.ar    1  LIG1       -0.3537
     39 H         -11.3051    3.2668   -0.9747 H       1  LIG1        0.1656
     40 H         -13.7780    3.3957   -1.4757 H       1  LIG1        0.0827
     41 O         -12.4080    7.3956    0.2830 O.3     1  LIG1       -0.5030
     42 H         -13.3179    7.7207    0.1892 H       1  LIG1        0.2923
     43 N         -14.8393    6.1602   -0.6983 N.pl3   1  LIG1       -0.3540
     44 H         -15.2172    6.2463   -1.6352 H       1  LIG1        0.1425
     45 H         -15.5316    5.7217   -0.1007 H       1  LIG1        0.1425
@<TRIPOS>BOND
     1    11    10    1
     2    12    10    1
     3    10     4    1
     4    44    43    1
     5    40    37    1
     6     7     3    1
     7    37    38   ar
     8    37    36   ar
     9    39    38    1
    10    38    34   ar
    11     4     3   ar
    12     4     5   ar
    13    43    36    1
    14    43    45    1
    15    36    35   ar
    16    23    24    3
    17     3     2   ar
    18    24    16    1
    19    34    35   ar
    20    34    28    1
    21    29    28   ar
    22    29    25   ar
    23    35    41    1
    24    19    15    1
    25    16    15   ar
    26    16    17   ar
    27    15    14   ar
    28    28    27   ar
    29    17    18   ar
    30    17    25    1
    31    14    13   ar
    32    14     5    1
    33    42    41    1
    34    18    13   ar
    35    13    20    1
    36    25    26   ar
    37    20    21    3
    38    21    22    1
    39     5     6   ar
    40     2     8    1
    41     2     1   ar
    42    27    26   ar
    43    27    33    1
    44    26    30    1
    45    31    30    1
    46     6     1   ar
    47    30    32    1
    48     1     9    1
