@<TRIPOS>MOLECULE
mol_data/opt/m06hf/geoms/mol2/6ah6ah-6ah-6ah.out
 46 49 0 0 0
SMALL
GASTEIGER

@<TRIPOS>ATOM
      1 C          -4.5226   -2.2514    0.2103 C.ar    1  LIG1        0.0284
      2 C          -3.1325   -2.3224    0.2511 C.ar    1  LIG1       -0.0418
      3 C          -2.4074   -1.1443    0.1859 C.ar    1  LIG1       -0.0375
      4 C          -3.0762    0.0806    0.0987 C.ar    1  LIG1        0.0509
      5 C          -4.4862    0.0490    0.1162 C.ar    1  LIG1        0.0930
      6 N          -5.1690   -1.0944    0.1440 N.ar    1  LIG1       -0.2531
      7 H          -1.3240   -1.1586    0.1943 H       1  LIG1        0.0637
      8 H          -2.6325   -3.2787    0.3206 H       1  LIG1        0.0633
      9 H          -5.1310   -3.1459    0.2368 H       1  LIG1        0.0830
     10 N          -2.3619    1.2727    0.0201 N.pl3   1  LIG1       -0.3563
     11 H          -1.4086    1.1692   -0.2983 H       1  LIG1        0.1424
     12 H          -2.8452    2.0312   -0.4437 H       1  LIG1        0.1424
     13 C          -4.9681    2.4724    0.7206 C.ar    1  LIG1        0.0376
     14 C          -5.3146    1.2909    0.0598 C.ar    1  LIG1        0.0220
     15 C          -6.5126    1.2701   -0.6484 C.ar    1  LIG1       -0.0283
     16 C          -7.3157    2.4060   -0.6997 C.ar    1  LIG1        0.0516
     17 C          -6.8824    3.5429    0.0167 C.ar    1  LIG1        0.0931
     18 N          -5.7351    3.5570    0.6883 N.ar    1  LIG1       -0.2524
     19 H          -6.8078    0.3575   -1.1529 H       1  LIG1        0.0644
     20 H          -4.0632    2.5361    1.3124 H       1  LIG1        0.0836
     21 N          -8.5149    2.4071   -1.4171 N.pl3   1  LIG1       -0.3563
     22 H          -8.7480    3.3018   -1.8305 H       1  LIG1        0.1424
     23 H          -8.5888    1.6513   -2.0848 H       1  LIG1        0.1424
     24 C          -6.9874    6.0332   -0.0025 C.ar    1  LIG1        0.0376
     25 C          -7.6675    4.8121    0.0492 C.ar    1  LIG1        0.0220
     26 C          -9.0526    4.8438    0.1638 C.ar    1  LIG1       -0.0283
     27 C          -9.7225    6.0702    0.2280 C.ar    1  LIG1        0.0516
     28 C          -8.9399    7.2407    0.1933 C.ar    1  LIG1        0.0931
     29 N          -7.6135    7.1974    0.0572 N.ar    1  LIG1       -0.2524
     30 H          -9.6167    3.9186    0.2147 H       1  LIG1        0.0644
     31 H          -5.9087    6.0468   -0.0855 H       1  LIG1        0.0836
     32 N         -11.1093    6.1078    0.3473 N.pl3   1  LIG1       -0.3563
     33 H         -11.5486    6.9419   -0.0204 H       1  LIG1        0.1424
     34 H         -11.5788    5.2597    0.0629 H       1  LIG1        0.1424
     35 C         -10.6148    8.9256    1.0942 C.ar    1  LIG1        0.0369
     36 C          -9.5334    8.6099    0.2666 C.ar    1  LIG1        0.0220
     37 C          -8.9473    9.6326   -0.4770 C.ar    1  LIG1       -0.0289
     38 C          -9.4698   10.9205   -0.4019 C.ar    1  LIG1        0.0435
     39 C         -10.5722   11.1191    0.4454 C.ar    1  LIG1        0.0482
     40 N         -11.1181   10.1574    1.1722 N.ar    1  LIG1       -0.2608
     41 H          -8.0792    9.4105   -1.0861 H       1  LIG1        0.0643
     42 H         -11.0067   12.1097    0.5386 H       1  LIG1        0.0848
     43 H         -11.0677    8.1730    1.7278 H       1  LIG1        0.0836
     44 N          -8.9023   11.9888   -1.0898 N.pl3   1  LIG1       -0.3568
     45 H          -8.3491   11.7381   -1.8959 H       1  LIG1        0.1424
     46 H          -9.5205   12.7669   -1.2692 H       1  LIG1        0.1424
@<TRIPOS>BOND
     1    23    21    1
     2    45    44    1
     3    22    21    1
     4    21    16    1
     5    46    44    1
     6    19    15    1
     7    44    38    1
     8    41    37    1
     9    16    15   ar
    10    16    17   ar
    11    15    14   ar
    12    37    38   ar
    13    37    36   ar
    14    12    10    1
    15    38    39   ar
    16    11    10    1
    17    31    24    1
    18    33    32    1
    19    24    25   ar
    20    24    29   ar
    21    17    25    1
    22    17    18   ar
    23    10     4    1
    24    25    26   ar
    25    29    28   ar
    26    14     5    1
    27    14    13   ar
    28    34    32    1
    29     4     5   ar
    30     4     3   ar
    31     5     6   ar
    32     6     1   ar
    33    26    30    1
    34    26    27   ar
    35     3     7    1
    36     3     2   ar
    37    28    27   ar
    38    28    36    1
    39     1     9    1
    40     1     2   ar
    41    27    32    1
    42     2     8    1
    43    36    35   ar
    44    39    42    1
    45    39    40   ar
    46    18    13   ar
    47    13    20    1
    48    35    40   ar
    49    35    43    1
