@<TRIPOS>MOLECULE
mol_data/opt/m06hf/geoms/mol2/6ah6ah6ah6ah-.out
 46 49 0 0 0
SMALL
GASTEIGER

@<TRIPOS>ATOM
      1 C          -3.8126   -1.6768    1.5702 C.ar    1  LIG1        0.0284
      2 C          -2.8170   -2.0673    0.6799 C.ar    1  LIG1       -0.0418
      3 C          -2.6112   -1.3060   -0.4603 C.ar    1  LIG1       -0.0375
      4 C          -3.3889   -0.1675   -0.6813 C.ar    1  LIG1        0.0509
      5 C          -4.3382    0.1703    0.3047 C.ar    1  LIG1        0.0930
      6 N          -4.5467   -0.5870    1.3792 N.ar    1  LIG1       -0.2531
      7 H          -1.8599   -1.5892   -1.1882 H       1  LIG1        0.0637
      8 H          -2.2269   -2.9529    0.8699 H       1  LIG1        0.0633
      9 H          -4.0231   -2.2509    2.4631 H       1  LIG1        0.0830
     10 N          -3.2115    0.6145   -1.8265 N.pl3   1  LIG1       -0.3563
     11 H          -2.7448    0.1293   -2.5815 H       1  LIG1        0.1424
     12 H          -4.0575    1.0728   -2.1431 H       1  LIG1        0.1424
     13 C          -6.5377    1.3181    0.5801 C.ar    1  LIG1        0.0376
     14 C          -5.1952    1.3878    0.1939 C.ar    1  LIG1        0.0220
     15 C          -4.7073    2.6141   -0.2455 C.ar    1  LIG1       -0.0283
     16 C          -5.5511    3.7266   -0.2860 C.ar    1  LIG1        0.0516
     17 C          -6.8782    3.5533    0.1499 C.ar    1  LIG1        0.0931
     18 N          -7.3434    2.3687    0.5472 N.ar    1  LIG1       -0.2524
     19 H          -3.6702    2.7120   -0.5480 H       1  LIG1        0.0644
     20 H          -6.9495    0.3817    0.9320 H       1  LIG1        0.0836
     21 N          -5.0739    4.9670   -0.7201 N.pl3   1  LIG1       -0.3563
     22 H          -4.2279    4.9072   -1.2708 H       1  LIG1        0.1424
     23 H          -5.7773    5.5439   -1.1660 H       1  LIG1        0.1424
     24 C          -9.1799    4.4401   -0.2286 C.ar    1  LIG1        0.0376
     25 C          -7.8597    4.6773    0.1679 C.ar    1  LIG1        0.0220
     26 C          -7.5293    5.9588    0.5941 C.ar    1  LIG1       -0.0283
     27 C          -8.5027    6.9629    0.6178 C.ar    1  LIG1        0.0516
     28 C          -9.8069    6.6128    0.2164 C.ar    1  LIG1        0.0931
     29 N         -10.1066    5.3850   -0.2112 N.ar    1  LIG1       -0.2524
     30 H          -6.5195    6.1821    0.9211 H       1  LIG1        0.0644
     31 H          -9.4758    3.4529   -0.5575 H       1  LIG1        0.0836
     32 N          -8.1771    8.2456    1.0509 N.pl3   1  LIG1       -0.3563
     33 H          -7.1896    8.4569    1.0310 H       1  LIG1        0.1424
     34 H          -8.7449    8.9870    0.6613 H       1  LIG1        0.1424
     35 C         -11.1100    8.5617    1.1933 C.ar    1  LIG1        0.0369
     36 C         -10.9346    7.5930    0.2016 C.ar    1  LIG1        0.0220
     37 C         -11.8845    7.5049   -0.8146 C.ar    1  LIG1       -0.0289
     38 C         -12.9531    8.3966   -0.8325 C.ar    1  LIG1        0.0435
     39 C         -13.0177    9.3443    0.2022 C.ar    1  LIG1        0.0482
     40 N         -12.1327    9.4168    1.1833 N.ar    1  LIG1       -0.2608
     41 H         -11.7848    6.7281   -1.5634 H       1  LIG1        0.0643
     42 H         -13.8380   10.0548    0.2296 H       1  LIG1        0.0848
     43 H         -10.4250    8.6310    2.0292 H       1  LIG1        0.0836
     44 N         -13.9536    8.3327   -1.7980 N.pl3   1  LIG1       -0.3568
     45 H         -14.4587    9.1930   -1.9549 H       1  LIG1        0.1424
     46 H         -13.6955    7.8716   -2.6582 H       1  LIG1        0.1424
@<TRIPOS>BOND
     1    46    44    1
     2    11    10    1
     3    12    10    1
     4    45    44    1
     5    10     4    1
     6    44    38    1
     7    41    37    1
     8    22    21    1
     9     7     3    1
    10    23    21    1
    11    38    37   ar
    12    38    39   ar
    13    37    36   ar
    14    21    16    1
    15     4     3   ar
    16     4     5   ar
    17    31    24    1
    18    19    15    1
    19     3     2   ar
    20    16    15   ar
    21    16    17   ar
    22    15    14   ar
    23    24    29   ar
    24    24    25   ar
    25    29    28   ar
    26    17    25    1
    27    17    18   ar
    28    25    26   ar
    29    14     5    1
    30    14    13   ar
    31    36    28    1
    32    36    35   ar
    33    39    42    1
    34    39    40   ar
    35    28    27   ar
    36     5     6   ar
    37    18    13   ar
    38    13    20    1
    39    26    27   ar
    40    26    30    1
    41    27    32    1
    42    34    32    1
    43     2     8    1
    44     2     1   ar
    45    33    32    1
    46    40    35   ar
    47    35    43    1
    48     6     1   ar
    49     1     9    1
