@<TRIPOS>MOLECULE
mol_data/opt/m06hf/geoms/mol2/6ai4ad6hd-6fh.out
 49 52 0 0 0
SMALL
GASTEIGER

@<TRIPOS>ATOM
      1 C          -4.5410   -2.2770    0.2195 C.ar    1  LIG1        0.0283
      2 C          -3.1596   -2.3840    0.0822 C.ar    1  LIG1       -0.0433
      3 C          -2.4300   -1.2146   -0.0695 C.ar    1  LIG1       -0.0554
      4 C          -3.0729    0.0244   -0.1070 C.ar    1  LIG1       -0.0245
      5 C          -4.4720    0.0084    0.0012 C.ar    1  LIG1        0.0739
      6 N          -5.1754   -1.1126    0.1820 N.ar    1  LIG1       -0.2547
      7 H          -1.3494   -1.2514   -0.1452 H       1  LIG1        0.0621
      8 H          -2.6771   -3.3507    0.1133 H       1  LIG1        0.0633
      9 H          -5.1570   -3.1554    0.3667 H       1  LIG1        0.0830
     10 C          -2.2420    1.2921   -0.2076 C.3     1  LIG1       -0.0377
     11 H          -2.7251    2.1210    0.3079 H       1  LIG1        0.0278
     12 H          -2.0787    1.5738   -1.2499 H       1  LIG1        0.0278
     13 H          -1.2682    1.1177    0.2493 H       1  LIG1        0.0278
     14 C          -5.0767    2.2888   -0.9404 C.ar    1  LIG1       -0.0519
     15 C          -5.9060    3.4077   -0.9704 C.ar    1  LIG1       -0.0521
     16 C          -5.3099    1.2500   -0.0388 C.ar    1  LIG1        0.0018
     17 C          -6.9855    3.5191   -0.0974 C.ar    1  LIG1        0.0028
     18 H          -5.7314    4.1966   -1.6906 H       1  LIG1        0.0624
     19 C          -6.4020    1.3375    0.8256 C.ar    1  LIG1       -0.0346
     20 C          -7.2183    2.4647    0.8029 C.ar    1  LIG1        0.0602
     21 H          -6.6075    0.5252    1.5097 H       1  LIG1        0.0637
     22 H          -4.2648    2.2127   -1.6515 H       1  LIG1        0.0624
     23 N          -9.1985    2.6139    2.4791 N.1     1  LIG1       -0.1908
     24 C          -8.3214    2.5539    1.7418 C.1     1  LIG1        0.0998
     25 C          -9.2257    4.6508   -0.4989 C.ar    1  LIG1        0.1247
     26 C          -7.8565    4.7273   -0.1217 C.ar    1  LIG1        0.0241
     27 C          -7.3590    5.9780    0.1623 C.ar    1  LIG1       -0.0312
     28 C          -8.1832    7.1127    0.1275 C.ar    1  LIG1        0.0785
     29 C          -9.5406    6.9478   -0.1891 C.ar    1  LIG1        0.0956
     30 N         -10.0027    5.7343   -0.5119 N.ar    1  LIG1       -0.2304
     31 H          -6.3144    6.0927    0.4239 H       1  LIG1        0.0638
     32 N          -9.7886    3.4917   -0.8877 N.pl3   1  LIG1       -0.3426
     33 H         -10.7874    3.4624   -1.0189 H       1  LIG1        0.1437
     34 H          -9.2756    2.6263   -0.8479 H       1  LIG1        0.1437
     35 N          -7.0090    9.3778    0.5689 N.1     1  LIG1       -0.1908
     36 C          -7.5604    8.3899    0.3694 C.1     1  LIG1        0.1013
     37 C         -11.6858    7.9626   -1.0480 C.ar    1  LIG1        0.2219
     38 C         -10.5305    8.0546   -0.2293 C.ar    1  LIG1        0.0647
     39 C         -10.3675    9.2116    0.5314 C.ar    1  LIG1       -0.0252
     40 C         -11.2695   10.2635    0.4174 C.ar    1  LIG1        0.0438
     41 C         -12.3318   10.0806   -0.4708 C.ar    1  LIG1        0.0520
     42 N         -12.5363    8.9686   -1.1626 N.ar    1  LIG1       -0.2191
     43 H          -9.5458    9.3013    1.2294 H       1  LIG1        0.0645
     44 H         -13.0623   10.8717   -0.6109 H       1  LIG1        0.0849
     45 O         -11.9774    6.8640   -1.7508 O.3     1  LIG1       -0.4919
     46 H         -11.3827    6.1486   -1.4260 H       1  LIG1        0.2937
     47 N         -11.1489   11.4219    1.2012 N.pl3   1  LIG1       -0.3568
     48 H         -10.1895   11.6836    1.3888 H       1  LIG1        0.1424
     49 H         -11.6711   12.2099    0.8410 H       1  LIG1        0.1424
@<TRIPOS>BOND
     1    45    46    1
     2    45    37    1
     3    18    15    1
     4    22    14    1
     5    12    10    1
     6    42    37   ar
     7    42    41   ar
     8    37    38   ar
     9    33    32    1
    10    15    14   ar
    11    15    17   ar
    12    14    16   ar
    13    32    34    1
    14    32    25    1
    15    44    41    1
    16    30    25   ar
    17    30    29   ar
    18    25    26   ar
    19    41    40   ar
    20    38    29    1
    21    38    39   ar
    22    10     4    1
    23    10    13    1
    24    10    11    1
    25    29    28   ar
    26     7     3    1
    27    26    17    1
    28    26    27   ar
    29     4     3   ar
    30     4     5   ar
    31    17    20   ar
    32     3     2   ar
    33    16     5    1
    34    16    19   ar
    35     5     6   ar
    36     2     8    1
    37     2     1   ar
    38    28    27   ar
    39    28    36    1
    40    27    31    1
    41     6     1   ar
    42     1     9    1
    43    36    35    3
    44    40    39   ar
    45    40    47    1
    46    39    43    1
    47    20    19   ar
    48    20    24    1
    49    19    21    1
    50    49    47    1
    51    47    48    1
    52    24    23    3
