@<TRIPOS>MOLECULE
mol_data/opt/m06hf/geoms/mol2/6ai6dh-13di6fi-.out
 51 54 0 0 0
SMALL
GASTEIGER

@<TRIPOS>ATOM
      1 C          -4.1288   -1.5163   -2.0947 C.ar    1  LIG1        0.0283
      2 C          -3.2562   -2.1202   -1.1930 C.ar    1  LIG1       -0.0433
      3 C          -3.0410   -1.4997    0.0292 C.ar    1  LIG1       -0.0554
      4 C          -3.6807   -0.2959    0.3278 C.ar    1  LIG1       -0.0244
      5 C          -4.5191    0.2255   -0.6659 C.ar    1  LIG1        0.0766
      6 N          -4.7448   -0.3692   -1.8365 N.ar    1  LIG1       -0.2546
      7 H          -2.3866   -1.9518    0.7652 H       1  LIG1        0.0621
      8 H          -2.7746   -3.0557   -1.4405 H       1  LIG1        0.0633
      9 H          -4.3436   -1.9703   -3.0537 H       1  LIG1        0.0830
     10 C          -3.4838    0.3702    1.6777 C.3     1  LIG1       -0.0377
     11 H          -4.3794    0.9123    1.9782 H       1  LIG1        0.0278
     12 H          -2.6470    1.0710    1.6481 H       1  LIG1        0.0278
     13 H          -3.2643   -0.3888    2.4280 H       1  LIG1        0.0278
     14 C          -6.6536    1.5663   -0.5665 C.ar    1  LIG1        0.1500
     15 C          -5.2549    1.5155   -0.4768 C.ar    1  LIG1        0.0382
     16 C          -4.5956    2.7045   -0.2366 C.ar    1  LIG1       -0.0270
     17 C          -5.2954    3.9185   -0.1001 C.ar    1  LIG1        0.0531
     18 C          -6.6994    3.8525   -0.2679 C.ar    1  LIG1        0.1104
     19 N          -7.3294    2.6967   -0.4635 N.ar    1  LIG1       -0.2323
     20 H          -3.5149    2.7083   -0.1557 H       1  LIG1        0.0644
     21 N          -8.0674   -0.5966   -0.8682 N.1     1  LIG1       -0.1893
     22 C          -7.4376    0.3544   -0.7517 C.1     1  LIG1        0.1198
     23 N          -4.6206    5.0509    0.2378 N.pl3   1  LIG1       -0.3563
     24 H          -3.6145    5.0250    0.1871 H       1  LIG1        0.1424
     25 H          -5.0259    5.9623    0.1018 H       1  LIG1        0.1424
     26 C          -7.6346    5.0000   -0.1675 C.ar    1  LIG1        0.0851
     27 C          -7.5963    6.3649   -0.4360 C.ar    1  LIG1        0.0820
     28 C          -8.8920    6.9158   -0.1906 C.ar    1  LIG1       -0.0070
     29 C          -9.6826    5.8609    0.2052 C.ar    1  LIG1        0.0563
     30 N          -8.9024    4.7304    0.2202 N.ar    1  LIG1       -0.3515
     31 H          -9.2224    3.7767    0.3530 H       1  LIG1        0.1660
     32 N          -5.6123    7.7546   -1.3277 N.1     1  LIG1       -0.1908
     33 C          -6.4982    7.1299   -0.9428 C.1     1  LIG1        0.1016
     34 C          -9.2849    8.3621   -0.3401 C.3     1  LIG1       -0.0365
     35 H         -10.2493    8.5331    0.1368 H       1  LIG1        0.0279
     36 H          -9.3562    8.6328   -1.3948 H       1  LIG1        0.0279
     37 H          -8.5374    9.0039    0.1270 H       1  LIG1        0.0279
     38 C         -11.5049    5.3622    1.8535 C.ar    1  LIG1        0.2217
     39 C         -11.1119    5.8224    0.5797 C.ar    1  LIG1        0.0602
     40 C         -12.1105    6.2421   -0.2880 C.ar    1  LIG1       -0.0432
     41 C         -13.4502    6.1931    0.1017 C.ar    1  LIG1       -0.0315
     42 C         -13.7025    5.6959    1.3763 C.ar    1  LIG1        0.0343
     43 N         -12.7626    5.2940    2.2330 N.ar    1  LIG1       -0.2206
     44 H         -11.8347    6.5933   -1.2767 H       1  LIG1        0.0629
     45 H         -14.7237    5.6195    1.7340 H       1  LIG1        0.0833
     46 O         -10.5926    4.9536    2.7609 O.3     1  LIG1       -0.4919
     47 H          -9.7053    5.2077    2.4780 H       1  LIG1        0.2937
     48 C         -14.5668    6.6436   -0.8186 C.3     1  LIG1       -0.0383
     49 H         -15.5348    6.4867   -0.3437 H       1  LIG1        0.0278
     50 H         -14.5433    6.0798   -1.7519 H       1  LIG1        0.0278
     51 H         -14.4636    7.7041   -1.0528 H       1  LIG1        0.0278
@<TRIPOS>BOND
     1     9     1    1
     2     1     6   ar
     3     1     2   ar
     4     6     5   ar
     5    50    48    1
     6     8     2    1
     7    36    34    1
     8    32    33    3
     9    44    40    1
    10     2     3   ar
    11    51    48    1
    12    33    27    1
    13    21    22    3
    14    48    49    1
    15    48    41    1
    16    22    14    1
    17     5    15    1
    18     5     4   ar
    19    14    15   ar
    20    14    19   ar
    21    15    16   ar
    22    19    18   ar
    23    27    28   ar
    24    27    26   ar
    25    34    28    1
    26    34    37    1
    27    34    35    1
    28    40    41   ar
    29    40    39   ar
    30    18    26    1
    31    18    17   ar
    32    16    20    1
    33    16    17   ar
    34    28    29   ar
    35    26    30   ar
    36    17    23    1
    37     3     4   ar
    38     3     7    1
    39    41    42   ar
    40    25    23    1
    41    24    23    1
    42    29    30   ar
    43    29    39    1
    44    30    31    1
    45     4    10    1
    46    39    38   ar
    47    42    45    1
    48    42    43   ar
    49    12    10    1
    50    10    11    1
    51    10    13    1
    52    38    43   ar
    53    38    46    1
    54    47    46    1
