@<TRIPOS>MOLECULE
mol_data/opt/m06hf/geoms/mol2/6ai6ai6ai.out
 38 40 0 0 0
SMALL
GASTEIGER

@<TRIPOS>ATOM
      1 C          -4.4979   -1.9092   -1.3179 C.ar    1  LIG1        0.0283
      2 C          -3.2394   -2.2159   -0.8090 C.ar    1  LIG1       -0.0433
      3 C          -2.6224   -1.2755    0.0036 C.ar    1  LIG1       -0.0554
      4 C          -3.2446   -0.0567    0.2748 C.ar    1  LIG1       -0.0244
      5 C          -4.4981    0.1604   -0.3213 C.ar    1  LIG1        0.0753
      6 N          -5.1084   -0.7552   -1.0789 N.ar    1  LIG1       -0.2547
      7 H          -1.6561   -1.4871    0.4469 H       1  LIG1        0.0621
      8 H          -2.7727   -3.1655   -1.0300 H       1  LIG1        0.0633
      9 H          -5.0358   -2.6165   -1.9372 H       1  LIG1        0.0830
     10 C          -2.5788    0.9327    1.2150 C.3     1  LIG1       -0.0377
     11 H          -3.3227    1.5136    1.7589 H       1  LIG1        0.0278
     12 H          -1.9311    1.6202    0.6669 H       1  LIG1        0.0278
     13 H          -1.9632    0.3896    1.9320 H       1  LIG1        0.0278
     14 C          -6.6533    1.3416    0.1076 C.ar    1  LIG1        0.0374
     15 C          -5.2778    1.4204   -0.1294 C.ar    1  LIG1        0.0190
     16 C          -4.7190    2.6905   -0.2028 C.ar    1  LIG1       -0.0462
     17 C          -5.5082    3.8303   -0.0437 C.ar    1  LIG1       -0.0238
     18 C          -6.8786    3.6274    0.1796 C.ar    1  LIG1        0.0753
     19 N          -7.4217    2.4077    0.2672 N.ar    1  LIG1       -0.2540
     20 H          -3.6588    2.8065   -0.3970 H       1  LIG1        0.0628
     21 H          -7.1322    0.3722    0.1657 H       1  LIG1        0.0836
     22 C          -4.8555    5.2010   -0.0811 C.3     1  LIG1       -0.0377
     23 H          -5.3891    5.9020    0.5597 H       1  LIG1        0.0278
     24 H          -4.8392    5.6001   -1.0975 H       1  LIG1        0.0278
     25 H          -3.8252    5.1206    0.2657 H       1  LIG1        0.0278
     26 C          -8.8102    4.6450    1.3811 C.ar    1  LIG1        0.0367
     27 C          -7.8440    4.7510    0.3730 C.ar    1  LIG1        0.0189
     28 C          -7.8664    5.8883   -0.4268 C.ar    1  LIG1       -0.0468
     29 C          -8.8167    6.8829   -0.1938 C.ar    1  LIG1       -0.0317
     30 C          -9.7105    6.6718    0.8529 C.ar    1  LIG1        0.0305
     31 N          -9.7156    5.5830    1.6228 N.ar    1  LIG1       -0.2623
     32 H          -7.1655    5.9943   -1.2476 H       1  LIG1        0.0628
     33 H         -10.4661    7.4171    1.0774 H       1  LIG1        0.0832
     34 H          -8.8352    3.7561    1.9996 H       1  LIG1        0.0836
     35 C          -8.8778    8.1328   -1.0492 C.3     1  LIG1       -0.0383
     36 H          -9.7011    8.7718   -0.7321 H       1  LIG1        0.0278
     37 H          -9.0271    7.8675   -2.0968 H       1  LIG1        0.0278
     38 H          -7.9475    8.6971   -0.9654 H       1  LIG1        0.0278
@<TRIPOS>BOND
     1    37    35    1
     2     9     1    1
     3     1     6   ar
     4     1     2   ar
     5    32    28    1
     6    24    22    1
     7     6     5   ar
     8    35    38    1
     9    35    36    1
    10    35    29    1
    11     8     2    1
    12     2     3   ar
    13    28    29   ar
    14    28    27   ar
    15    20    16    1
    16     5    15    1
    17     5     4   ar
    18    16    15   ar
    19    16    17   ar
    20    29    30   ar
    21    15    14   ar
    22    22    17    1
    23    22    25    1
    24    22    23    1
    25    17    18   ar
    26     3     4   ar
    27     3     7    1
    28    14    21    1
    29    14    19   ar
    30    18    19   ar
    31    18    27    1
    32     4    10    1
    33    27    26   ar
    34    12    10    1
    35    30    33    1
    36    30    31   ar
    37    10    11    1
    38    10    13    1
    39    26    31   ar
    40    26    34    1
