@<TRIPOS>MOLECULE
mol_data/opt/m06hf/geoms/mol2/6ai6ai-6ai6ai-.out
 50 53 0 0 0
SMALL
GASTEIGER

@<TRIPOS>ATOM
      1 C          -4.4025   -2.1469   -0.8712 C.ar    1  LIG1        0.0283
      2 C          -3.0564   -2.2660   -0.5384 C.ar    1  LIG1       -0.0433
      3 C          -2.4115   -1.1444   -0.0373 C.ar    1  LIG1       -0.0554
      4 C          -3.0940    0.0647    0.0982 C.ar    1  LIG1       -0.0244
      5 C          -4.4395    0.0797   -0.3064 C.ar    1  LIG1        0.0753
      6 N          -5.0733   -1.0078   -0.7556 N.ar    1  LIG1       -0.2547
      7 H          -1.3729   -1.2027    0.2670 H       1  LIG1        0.0621
      8 H          -2.5427   -3.2105   -0.6525 H       1  LIG1        0.0633
      9 H          -4.9616   -2.9968   -1.2431 H       1  LIG1        0.0830
     10 C          -2.3860    1.2621    0.7078 C.3     1  LIG1       -0.0377
     11 H          -3.0879    1.8944    1.2502 H       1  LIG1        0.0278
     12 H          -1.8985    1.8639   -0.0618 H       1  LIG1        0.0278
     13 H          -1.6197    0.9124    1.3996 H       1  LIG1        0.0278
     14 C          -4.8576    2.5634   -0.6400 C.ar    1  LIG1        0.0374
     15 C          -5.2959    1.3027   -0.2353 C.ar    1  LIG1        0.0190
     16 C          -6.6104    1.2015    0.2107 C.ar    1  LIG1       -0.0462
     17 C          -7.4384    2.3195    0.2618 C.ar    1  LIG1       -0.0238
     18 C          -6.8912    3.5353   -0.1862 C.ar    1  LIG1        0.0753
     19 N          -5.6297    3.6417   -0.6122 N.ar    1  LIG1       -0.2540
     20 H          -6.9802    0.2330    0.5268 H       1  LIG1        0.0628
     21 H          -3.8546    2.7052   -1.0235 H       1  LIG1        0.0836
     22 C          -8.8404    2.1788    0.8282 C.3     1  LIG1       -0.0377
     23 H          -8.8580    1.3513    1.5369 H       1  LIG1        0.0278
     24 H          -9.5625    1.9624    0.0385 H       1  LIG1        0.0278
     25 H          -9.1479    3.0889    1.3419 H       1  LIG1        0.0278
     26 C          -8.9875    4.9167   -0.5929 C.ar    1  LIG1        0.0374
     27 C          -7.6528    4.8209   -0.1994 C.ar    1  LIG1        0.0190
     28 C          -7.0114    6.0050    0.1555 C.ar    1  LIG1       -0.0462
     29 C          -7.6869    7.2217    0.1340 C.ar    1  LIG1       -0.0238
     30 C          -9.0285    7.1954   -0.2884 C.ar    1  LIG1        0.0753
     31 N          -9.6513    6.0649   -0.6300 N.ar    1  LIG1       -0.2540
     32 H          -5.9718    5.9617    0.4586 H       1  LIG1        0.0628
     33 H          -9.5357    4.0400   -0.9142 H       1  LIG1        0.0836
     34 C          -6.9737    8.4792    0.5993 C.3     1  LIG1       -0.0377
     35 H          -7.6708    9.1710    1.0705 H       1  LIG1        0.0278
     36 H          -6.4908    8.9873   -0.2375 H       1  LIG1        0.0278
     37 H          -6.2029    8.2079    1.3203 H       1  LIG1        0.0278
     38 C          -9.4323    9.6308   -0.8847 C.ar    1  LIG1        0.0367
     39 C          -9.8859    8.4181   -0.3612 C.ar    1  LIG1        0.0189
     40 C         -11.2147    8.3481    0.0517 C.ar    1  LIG1       -0.0468
     41 C         -12.0268    9.4751   -0.0280 C.ar    1  LIG1       -0.0317
     42 C         -11.4512   10.6355   -0.5473 C.ar    1  LIG1        0.0305
     43 N         -10.1940   10.7165   -0.9757 N.ar    1  LIG1       -0.2623
     44 H         -11.6004    7.4055    0.4235 H       1  LIG1        0.0628
     45 H         -12.0422   11.5418   -0.6314 H       1  LIG1        0.0832
     46 H          -8.4238    9.7209   -1.2694 H       1  LIG1        0.0836
     47 C         -13.4726    9.4446    0.4263 C.3     1  LIG1       -0.0383
     48 H         -13.5287    9.2635    1.5007 H       1  LIG1        0.0278
     49 H         -14.0115    8.6464   -0.0855 H       1  LIG1        0.0278
     50 H         -13.9625   10.3927    0.2070 H       1  LIG1        0.0278
@<TRIPOS>BOND
     1    46    38    1
     2     9     1    1
     3    21    14    1
     4    43    38   ar
     5    43    42   ar
     6    33    26    1
     7    38    39   ar
     8     1     6   ar
     9     1     2   ar
    10     6     5   ar
    11     8     2    1
    12    14    19   ar
    13    14    15   ar
    14    45    42    1
    15    31    26   ar
    16    31    30   ar
    17    19    18   ar
    18    26    27   ar
    19    42    41   ar
    20     2     3   ar
    21    39    30    1
    22    39    40   ar
    23     5    15    1
    24     5     4   ar
    25    30    29   ar
    26    36    34    1
    27    15    16   ar
    28    27    18    1
    29    27    28   ar
    30    18    17   ar
    31    49    47    1
    32    12    10    1
    33     3     4   ar
    34     3     7    1
    35    41    40   ar
    36    41    47    1
    37    24    22    1
    38    40    44    1
    39     4    10    1
    40    29    28   ar
    41    29    34    1
    42    28    32    1
    43    50    47    1
    44    16    17   ar
    45    16    20    1
    46    17    22    1
    47    47    48    1
    48    34    35    1
    49    34    37    1
    50    10    11    1
    51    10    13    1
    52    22    25    1
    53    22    23    1
