@<TRIPOS>MOLECULE
mol_data/opt/m06hf/geoms/mol2/6ai6ai6ai-6ai.out
 50 53 0 0 0
SMALL
GASTEIGER

@<TRIPOS>ATOM
      1 C          -4.2820   -1.9418   -1.4641 C.ar    1  LIG1        0.0283
      2 C          -3.1139   -2.2640   -0.7798 C.ar    1  LIG1       -0.0433
      3 C          -2.6237   -1.3438    0.1357 C.ar    1  LIG1       -0.0554
      4 C          -3.2772   -0.1275    0.3360 C.ar    1  LIG1       -0.0244
      5 C          -4.4268    0.1080   -0.4369 C.ar    1  LIG1        0.0753
      6 N          -4.9192   -0.7900   -1.2953 N.ar    1  LIG1       -0.2547
      7 H          -1.7352   -1.5692    0.7142 H       1  LIG1        0.0621
      8 H          -2.6204   -3.2107   -0.9486 H       1  LIG1        0.0633
      9 H          -4.7217   -2.6335   -2.1725 H       1  LIG1        0.0830
     10 C          -2.7585    0.8392    1.3859 C.3     1  LIG1       -0.0377
     11 H          -3.5738    1.4179    1.8185 H       1  LIG1        0.0278
     12 H          -2.0286    1.5290    0.9570 H       1  LIG1        0.0278
     13 H          -2.2656    0.2778    2.1796 H       1  LIG1        0.0278
     14 C          -6.6230    1.2850   -0.3334 C.ar    1  LIG1        0.0374
     15 C          -5.2263    1.3665   -0.3405 C.ar    1  LIG1        0.0190
     16 C          -4.6673    2.6369   -0.2874 C.ar    1  LIG1       -0.0462
     17 C          -5.4741    3.7751   -0.2295 C.ar    1  LIG1       -0.0238
     18 C          -6.8617    3.5699   -0.2436 C.ar    1  LIG1        0.0753
     19 N          -7.4081    2.3480   -0.2758 N.ar    1  LIG1       -0.2540
     20 H          -3.5903    2.7581   -0.3023 H       1  LIG1        0.0628
     21 H          -7.1019    0.3148   -0.3796 H       1  LIG1        0.0836
     22 C          -4.8174    5.1400   -0.1154 C.3     1  LIG1       -0.0377
     23 H          -5.4405    5.8262    0.4570 H       1  LIG1        0.0278
     24 H          -4.6362    5.5728   -1.1011 H       1  LIG1        0.0278
     25 H          -3.8567    5.0349    0.3889 H       1  LIG1        0.0278
     26 C          -7.7127    5.8770   -0.8952 C.ar    1  LIG1        0.0374
     27 C          -7.8566    4.6833   -0.1885 C.ar    1  LIG1        0.0190
     28 C          -9.0152    4.5322    0.5695 C.ar    1  LIG1       -0.0462
     29 C          -9.9714    5.5417    0.6273 C.ar    1  LIG1       -0.0238
     30 C          -9.7214    6.6975   -0.1347 C.ar    1  LIG1        0.0753
     31 N          -8.6133    6.8508   -0.8639 N.ar    1  LIG1       -0.2540
     32 H          -9.1576    3.6107    1.1220 H       1  LIG1        0.0628
     33 H          -6.8524    6.0461   -1.5308 H       1  LIG1        0.0836
     34 C         -11.1855    5.3679    1.5231 C.3     1  LIG1       -0.0377
     35 H         -10.9303    4.7015    2.3466 H       1  LIG1        0.0278
     36 H         -12.0170    4.9227    0.9736 H       1  LIG1        0.0278
     37 H         -11.5105    6.3249    1.9298 H       1  LIG1        0.0278
     38 C         -12.0382    7.7282   -0.2753 C.ar    1  LIG1        0.0367
     39 C         -10.6520    7.8670   -0.1742 C.ar    1  LIG1        0.0189
     40 C         -10.1296    9.1585   -0.1728 C.ar    1  LIG1       -0.0468
     41 C         -10.9860   10.2540   -0.2278 C.ar    1  LIG1       -0.0317
     42 C         -12.3536    9.9864   -0.3002 C.ar    1  LIG1        0.0305
     43 N         -12.8725    8.7614   -0.3344 N.ar    1  LIG1       -0.2623
     44 H          -9.0541    9.2899   -0.1371 H       1  LIG1        0.0628
     45 H         -13.0636   10.8058   -0.3454 H       1  LIG1        0.0832
     46 H         -12.4890    6.7454   -0.3380 H       1  LIG1        0.0836
     47 C         -10.4570   11.6746   -0.2118 C.3     1  LIG1       -0.0383
     48 H         -11.2709   12.3870   -0.3425 H       1  LIG1        0.0278
     49 H          -9.7358   11.8168   -1.0175 H       1  LIG1        0.0278
     50 H          -9.9603   11.8829    0.7368 H       1  LIG1        0.0278
@<TRIPOS>BOND
     1     9     1    1
     2    33    26    1
     3     1     6   ar
     4     1     2   ar
     5     6     5   ar
     6    24    22    1
     7    49    47    1
     8     8     2    1
     9    26    31   ar
    10    26    27   ar
    11    31    30   ar
    12     2     3   ar
    13     5    15    1
    14     5     4   ar
    15    21    14    1
    16    45    42    1
    17    48    47    1
    18    15    14   ar
    19    15    16   ar
    20    46    38    1
    21    43    42   ar
    22    43    38   ar
    23    14    19   ar
    24    20    16    1
    25    42    41   ar
    26    16    17   ar
    27    19    18   ar
    28    38    39   ar
    29    18    17   ar
    30    18    27    1
    31    17    22    1
    32    41    47    1
    33    41    40   ar
    34    47    50    1
    35    27    28   ar
    36    39    40   ar
    37    39    30    1
    38    40    44    1
    39    30    29   ar
    40    22    25    1
    41    22    23    1
    42     3     4   ar
    43     3     7    1
    44     4    10    1
    45    28    29   ar
    46    28    32    1
    47    29    34    1
    48    12    10    1
    49    36    34    1
    50    10    11    1
    51    10    13    1
    52    34    37    1
    53    34    35    1
