@<TRIPOS>MOLECULE
mol_data/opt/m06hf/geoms/mol2/6ai6ai.out
 26 27 0 0 0
SMALL
GASTEIGER

@<TRIPOS>ATOM
      1 C          -4.5936   -2.0267   -0.6537 C.ar    1  LIG1        0.0283
      2 C          -3.2191   -2.1476   -0.4739 C.ar    1  LIG1       -0.0433
      3 C          -2.5227   -1.0319   -0.0314 C.ar    1  LIG1       -0.0554
      4 C          -3.1881    0.1730    0.1961 C.ar    1  LIG1       -0.0244
      5 C          -4.5699    0.1918   -0.0584 C.ar    1  LIG1        0.0753
      6 N          -5.2485   -0.8899   -0.4510 N.ar    1  LIG1       -0.2547
      7 H          -1.4566   -1.0911    0.1546 H       1  LIG1        0.0621
      8 H          -2.7202   -3.0890   -0.6572 H       1  LIG1        0.0633
      9 H          -5.1904   -2.8727   -0.9719 H       1  LIG1        0.0830
     10 C          -2.4182    1.3643    0.7387 C.3     1  LIG1       -0.0377
     11 H          -3.0615    1.9988    1.3468 H       1  LIG1        0.0278
     12 H          -2.0021    1.9654   -0.0725 H       1  LIG1        0.0278
     13 H          -1.5913    1.0085    1.3535 H       1  LIG1        0.0278
     14 C          -6.6575    1.3039    0.7370 C.ar    1  LIG1        0.0367
     15 C          -5.4062    1.4178    0.1196 C.ar    1  LIG1        0.0189
     16 C          -5.0255    2.6725   -0.3440 C.ar    1  LIG1       -0.0468
     17 C          -5.8739    3.7657   -0.1662 C.ar    1  LIG1       -0.0317
     18 C          -7.0831    3.5291    0.4827 C.ar    1  LIG1        0.0305
     19 N          -7.4737    2.3324    0.9227 N.ar    1  LIG1       -0.2623
     20 H          -4.0835    2.8005   -0.8660 H       1  LIG1        0.0628
     21 H          -7.7758    4.3471    0.6501 H       1  LIG1        0.0832
     22 H          -6.9920    0.3333    1.0819 H       1  LIG1        0.0836
     23 C          -5.4988    5.1468   -0.6664 C.3     1  LIG1       -0.0383
     24 H          -6.2914    5.8605   -0.4447 H       1  LIG1        0.0278
     25 H          -5.3392    5.1283   -1.7454 H       1  LIG1        0.0278
     26 H          -4.5797    5.4884   -0.1882 H       1  LIG1        0.0278
@<TRIPOS>BOND
     1    25    23    1
     2     9     1    1
     3    20    16    1
     4    23    24    1
     5    23    26    1
     6    23    17    1
     7     8     2    1
     8     1     2   ar
     9     1     6   ar
    10     2     3   ar
    11     6     5   ar
    12    16    17   ar
    13    16    15   ar
    14    17    18   ar
    15    12    10    1
    16     5    15    1
    17     5     4   ar
    18     3     7    1
    19     3     4   ar
    20    15    14   ar
    21     4    10    1
    22    18    21    1
    23    18    19   ar
    24    14    19   ar
    25    14    22    1
    26    10    11    1
    27    10    13    1
