@<TRIPOS>MOLECULE
mol_data/opt/m06hf/geoms/mol2/6ai6ai-6ai-6ai-.out
 50 53 0 0 0
SMALL
GASTEIGER

@<TRIPOS>ATOM
      1 C          -4.4028   -2.1642   -0.7529 C.ar    1  LIG1        0.0283
      2 C          -3.0120   -2.2139   -0.7328 C.ar    1  LIG1       -0.0433
      3 C          -2.3258   -1.0349   -0.4804 C.ar    1  LIG1       -0.0554
      4 C          -3.0179    0.1603   -0.2813 C.ar    1  LIG1       -0.0244
      5 C          -4.4194    0.1002   -0.3639 C.ar    1  LIG1        0.0753
      6 N          -5.0848   -1.0405   -0.5712 N.ar    1  LIG1       -0.2547
      7 H          -1.2434   -1.0346   -0.4218 H       1  LIG1        0.0621
      8 H          -2.4919   -3.1483   -0.8923 H       1  LIG1        0.0633
      9 H          -4.9892   -3.0594   -0.9204 H       1  LIG1        0.0830
     10 C          -2.2457    1.4247    0.0529 C.3     1  LIG1       -0.0377
     11 H          -2.8303    2.0816    0.6960 H       1  LIG1        0.0278
     12 H          -1.9789    1.9719   -0.8532 H       1  LIG1        0.0278
     13 H          -1.3242    1.1566    0.5695 H       1  LIG1        0.0278
     14 C          -5.0161    2.5360   -0.7681 C.ar    1  LIG1        0.0374
     15 C          -5.2964    1.2980   -0.1905 C.ar    1  LIG1        0.0190
     16 C          -6.4764    1.1901    0.5407 C.ar    1  LIG1       -0.0462
     17 C          -7.3235    2.2833    0.6950 C.ar    1  LIG1       -0.0238
     18 C          -6.9435    3.4765    0.0550 C.ar    1  LIG1        0.0753
     19 N          -5.8128    3.5900   -0.6458 N.ar    1  LIG1       -0.2540
     20 H          -6.7215    0.2373    0.9955 H       1  LIG1        0.0628
     21 H          -4.1280    2.6780   -1.3718 H       1  LIG1        0.0836
     22 C          -8.5648    2.1534    1.5600 C.3     1  LIG1       -0.0377
     23 H          -8.3876    1.4056    2.3324 H       1  LIG1        0.0278
     24 H          -9.4224    1.8282    0.9671 H       1  LIG1        0.0278
     25 H          -8.8080    3.1030    2.0356 H       1  LIG1        0.0278
     26 C          -7.1096    5.9516    0.3235 C.ar    1  LIG1        0.0374
     27 C          -7.7561    4.7279    0.1246 C.ar    1  LIG1        0.0190
     28 C          -9.1371    4.7586   -0.0268 C.ar    1  LIG1       -0.0462
     29 C          -9.8369    5.9645    0.0249 C.ar    1  LIG1       -0.0238
     30 C          -9.0802    7.1300    0.2223 C.ar    1  LIG1        0.0753
     31 N          -7.7520    7.1077    0.3811 N.ar    1  LIG1       -0.2540
     32 H          -9.6842    3.8386   -0.1984 H       1  LIG1        0.0628
     33 H          -6.0328    5.9770    0.4372 H       1  LIG1        0.0836
     34 C         -11.3510    5.9510   -0.0934 C.3     1  LIG1       -0.0377
     35 H         -11.7333    5.0003    0.2786 H       1  LIG1        0.0278
     36 H         -11.6646    6.0564   -1.1340 H       1  LIG1        0.0278
     37 H         -11.7935    6.7593    0.4874 H       1  LIG1        0.0278
     38 C          -9.2246    9.3791    1.2863 C.ar    1  LIG1        0.0367
     39 C          -9.6921    8.4907    0.3093 C.ar    1  LIG1        0.0189
     40 C         -10.6802    8.9449   -0.5573 C.ar    1  LIG1       -0.0468
     41 C         -11.1870   10.2374   -0.4170 C.ar    1  LIG1       -0.0317
     42 C         -10.6592   11.0166    0.6090 C.ar    1  LIG1        0.0305
     43 N          -9.7001   10.6072    1.4404 N.ar    1  LIG1       -0.2623
     44 H         -11.0419    8.3085   -1.3574 H       1  LIG1        0.0628
     45 H         -11.0242   12.0264    0.7640 H       1  LIG1        0.0832
     46 H          -8.4333    9.0626    1.9549 H       1  LIG1        0.0836
     47 C         -12.2550   10.7727   -1.3503 C.3     1  LIG1       -0.0383
     48 H         -13.1430   10.1396   -1.3163 H       1  LIG1        0.0278
     49 H         -11.8848   10.7929   -2.3764 H       1  LIG1        0.0278
     50 H         -12.5386   11.7848   -1.0640 H       1  LIG1        0.0278
@<TRIPOS>BOND
     1    49    47    1
     2    21    14    1
     3    44    40    1
     4    47    48    1
     5    47    50    1
     6    47    41    1
     7    36    34    1
     8     9     1    1
     9     8     2    1
    10    12    10    1
    11    14    19   ar
    12    14    15   ar
    13     1     2   ar
    14     1     6   ar
    15     2     3   ar
    16    19    18   ar
    17     6     5   ar
    18    40    41   ar
    19    40    39   ar
    20     3     7    1
    21     3     4   ar
    22    41    42   ar
    23     5     4   ar
    24     5    15    1
    25     4    10    1
    26    32    28    1
    27    15    16   ar
    28    34    29    1
    29    34    35    1
    30    34    37    1
    31    28    29   ar
    32    28    27   ar
    33    29    30   ar
    34    10    13    1
    35    10    11    1
    36    18    27    1
    37    18    17   ar
    38    27    26   ar
    39    30    39    1
    40    30    31   ar
    41    39    38   ar
    42    26    31   ar
    43    26    33    1
    44    16    17   ar
    45    16    20    1
    46    42    45    1
    47    42    43   ar
    48    17    22    1
    49    24    22    1
    50    38    43   ar
    51    38    46    1
    52    22    25    1
    53    22    23    1
