@<TRIPOS>MOLECULE
mol_data/opt/m06hf/geoms/mol2/6ai6ai-.out
 26 27 0 0 0
SMALL
GASTEIGER

@<TRIPOS>ATOM
      1 C          -4.4916   -2.0471   -0.6124 C.ar    1  LIG1        0.0283
      2 C          -3.1464   -2.1267   -0.2651 C.ar    1  LIG1       -0.0433
      3 C          -2.5121   -0.9610    0.1393 C.ar    1  LIG1       -0.0554
      4 C          -3.2040    0.2504    0.1661 C.ar    1  LIG1       -0.0244
      5 C          -4.5474    0.2211   -0.2443 C.ar    1  LIG1        0.0753
      6 N          -5.1705   -0.9067   -0.6001 N.ar    1  LIG1       -0.2547
      7 H          -1.4742   -0.9843    0.4512 H       1  LIG1        0.0621
      8 H          -2.6254   -3.0736   -0.2937 H       1  LIG1        0.0633
      9 H          -5.0430   -2.9305   -0.9111 H       1  LIG1        0.0830
     10 C          -2.5057    1.5010    0.6715 C.3     1  LIG1       -0.0377
     11 H          -3.2165    2.1827    1.1367 H       1  LIG1        0.0278
     12 H          -2.0021    2.0260   -0.1425 H       1  LIG1        0.0278
     13 H          -1.7536    1.2189    1.4085 H       1  LIG1        0.0278
     14 C          -4.9631    2.6583   -0.8096 C.ar    1  LIG1        0.0367
     15 C          -5.4101    1.4416   -0.2887 C.ar    1  LIG1        0.0189
     16 C          -6.7339    1.3672    0.1378 C.ar    1  LIG1       -0.0468
     17 C          -7.5476    2.4946    0.0735 C.ar    1  LIG1       -0.0317
     18 C          -6.9789    3.6584   -0.4456 C.ar    1  LIG1        0.0305
     19 N          -5.7259    3.7440   -0.8864 N.ar    1  LIG1       -0.2623
     20 H          -7.1145    0.4224    0.5086 H       1  LIG1        0.0628
     21 H          -7.5719    4.5641   -0.5178 H       1  LIG1        0.0832
     22 H          -3.9576    2.7501   -1.2029 H       1  LIG1        0.0836
     23 C          -8.9889    2.4594    0.5416 C.3     1  LIG1       -0.0383
     24 H          -9.0356    2.2231    1.6056 H       1  LIG1        0.0278
     25 H          -9.5442    1.6964   -0.0051 H       1  LIG1        0.0278
     26 H          -9.4677    3.4242    0.3776 H       1  LIG1        0.0278
@<TRIPOS>BOND
     1    22    14    1
     2     9     1    1
     3    19    14   ar
     4    19    18   ar
     5    14    15   ar
     6     1     6   ar
     7     1     2   ar
     8     6     5   ar
     9    21    18    1
    10    18    17   ar
    11     8     2    1
    12    15     5    1
    13    15    16   ar
    14     2     3   ar
    15     5     4   ar
    16    12    10    1
    17    25    23    1
    18    17    16   ar
    19    17    23    1
    20    16    20    1
    21     3     4   ar
    22     3     7    1
    23     4    10    1
    24    26    23    1
    25    23    24    1
    26    10    11    1
    27    10    13    1
