@<TRIPOS>MOLECULE
mol_data/opt/m06hf/geoms/mol2/6ai6ai-4ai6ai.out
 51 54 0 0 0
SMALL
GASTEIGER

@<TRIPOS>ATOM
      1 C          -4.6194   -2.2979   -0.1198 C.ar    1  LIG1        0.0283
      2 C          -3.2381   -2.4252   -0.2319 C.ar    1  LIG1       -0.0433
      3 C          -2.4836   -1.2621   -0.2796 C.ar    1  LIG1       -0.0554
      4 C          -3.1023   -0.0121   -0.2403 C.ar    1  LIG1       -0.0244
      5 C          -4.5062   -0.0026   -0.1673 C.ar    1  LIG1        0.0753
      6 N          -5.2325   -1.1216   -0.0870 N.ar    1  LIG1       -0.2547
      7 H          -1.4022   -1.3145   -0.3327 H       1  LIG1        0.0621
      8 H          -2.7755   -3.4019   -0.2626 H       1  LIG1        0.0633
      9 H          -5.2554   -3.1722   -0.0536 H       1  LIG1        0.0830
     10 C          -2.2459    1.2424   -0.2276 C.3     1  LIG1       -0.0377
     11 H          -2.7285    2.0389    0.3373 H       1  LIG1        0.0278
     12 H          -2.0572    1.5996   -1.2418 H       1  LIG1        0.0278
     13 H          -1.2854    1.0153    0.2351 H       1  LIG1        0.0278
     14 C          -5.0391    2.3636   -0.9315 C.ar    1  LIG1        0.0374
     15 C          -5.3137    1.2548   -0.1321 C.ar    1  LIG1        0.0190
     16 C          -6.4263    1.3355    0.7017 C.ar    1  LIG1       -0.0462
     17 C          -7.2140    2.4819    0.7350 C.ar    1  LIG1       -0.0239
     18 C          -6.8478    3.5324   -0.1267 C.ar    1  LIG1        0.0739
     19 N          -5.7788    3.4655   -0.9237 N.ar    1  LIG1       -0.2541
     20 H          -6.6661    0.4867    1.3315 H       1  LIG1        0.0628
     21 H          -4.2055    2.3560   -1.6232 H       1  LIG1        0.0836
     22 C          -8.3764    2.5581    1.7098 C.3     1  LIG1       -0.0377
     23 H          -8.1586    1.9336    2.5761 H       1  LIG1        0.0278
     24 H          -9.2962    2.1896    1.2514 H       1  LIG1        0.0278
     25 H          -8.5397    3.5825    2.0417 H       1  LIG1        0.0278
     26 C          -6.9012    6.0209   -0.2670 C.ar    1  LIG1       -0.0520
     27 C          -7.5898    7.2220   -0.3565 C.ar    1  LIG1       -0.0531
     28 C          -7.6086    4.8193   -0.2074 C.ar    1  LIG1        0.0009
     29 C          -8.9869    7.2486   -0.4117 C.ar    1  LIG1       -0.0135
     30 H          -7.0470    8.1580   -0.4046 H       1  LIG1        0.0624
     31 C          -9.0009    4.8490   -0.2686 C.ar    1  LIG1       -0.0491
     32 C          -9.7093    6.0476   -0.3703 C.ar    1  LIG1       -0.0421
     33 H          -9.5537    3.9171   -0.2571 H       1  LIG1        0.0627
     34 H          -5.8196    5.9963   -0.2519 H       1  LIG1        0.0624
     35 C         -11.2282    6.0171   -0.4202 C.3     1  LIG1       -0.0391
     36 H         -11.5940    5.1006    0.0423 H       1  LIG1        0.0278
     37 H         -11.5849    6.0441   -1.4515 H       1  LIG1        0.0278
     38 H         -11.6494    6.8728    0.1072 H       1  LIG1        0.0278
     39 C         -10.4796    8.8923   -1.6078 C.ar    1  LIG1        0.0353
     40 C          -9.6761    8.5710   -0.5080 C.ar    1  LIG1        0.0007
     41 C          -9.5232    9.5391    0.4804 C.ar    1  LIG1       -0.0482
     42 C         -10.1669   10.7700    0.3574 C.ar    1  LIG1       -0.0318
     43 C         -10.9482   10.9648   -0.7800 C.ar    1  LIG1        0.0305
     44 N         -11.1022   10.0567   -1.7431 N.ar    1  LIG1       -0.2624
     45 H          -8.9089    9.3253    1.3491 H       1  LIG1        0.0627
     46 H         -11.4727   11.9037   -0.9222 H       1  LIG1        0.0832
     47 H         -10.6046    8.1762   -2.4124 H       1  LIG1        0.0836
     48 C         -10.0235   11.8479    1.4133 C.3     1  LIG1       -0.0383
     49 H         -10.6597   12.7002    1.1772 H       1  LIG1        0.0278
     50 H          -8.9889   12.1902    1.4667 H       1  LIG1        0.0278
     51 H         -10.3083   11.4606    2.3923 H       1  LIG1        0.0278
@<TRIPOS>BOND
     1    47    39    1
     2    44    39   ar
     3    44    43   ar
     4    21    14    1
     5    39    40   ar
     6    37    35    1
     7    12    10    1
     8    14    19   ar
     9    14    15   ar
    10    19    18   ar
    11    46    43    1
    12    43    42   ar
    13    40    29    1
    14    40    41   ar
    15    35    32    1
    16    35    36    1
    17    35    38    1
    18    29    32   ar
    19    29    27   ar
    20    30    27    1
    21    32    31   ar
    22    27    26   ar
    23     7     3    1
    24     3     4   ar
    25     3     2   ar
    26    31    33    1
    27    31    28   ar
    28    26    34    1
    29    26    28   ar
    30     8     2    1
    31     4    10    1
    32     4     5   ar
    33     2     1   ar
    34    10    13    1
    35    10    11    1
    36    28    18    1
    37     5    15    1
    38     5     6   ar
    39    15    16   ar
    40    18    17   ar
    41     1     6   ar
    42     1     9    1
    43    42    41   ar
    44    42    48    1
    45    41    45    1
    46    16    17   ar
    47    16    20    1
    48    17    22    1
    49    49    48    1
    50    24    22    1
    51    48    50    1
    52    48    51    1
    53    22    25    1
    54    22    23    1
