@<TRIPOS>MOLECULE
mol_data/opt/m06hf/geoms/mol2/6ai6ai6ai6ai-.out
 50 53 0 0 0
SMALL
GASTEIGER

@<TRIPOS>ATOM
      1 C          -3.7087   -1.5500   -1.8519 C.ar    1  LIG1        0.0283
      2 C          -2.8215   -2.0533   -0.9052 C.ar    1  LIG1       -0.0433
      3 C          -2.7122   -1.3802    0.3034 C.ar    1  LIG1       -0.0554
      4 C          -3.4560   -0.2239    0.5394 C.ar    1  LIG1       -0.0244
      5 C          -4.2921    0.2140   -0.5015 C.ar    1  LIG1        0.0753
      6 N          -4.4238   -0.4493   -1.6536 N.ar    1  LIG1       -0.2547
      7 H          -2.0574   -1.7568    1.0807 H       1  LIG1        0.0621
      8 H          -2.2529   -2.9505   -1.1056 H       1  LIG1        0.0633
      9 H          -3.8516   -2.0489   -2.8026 H       1  LIG1        0.0830
     10 C          -3.3675    0.4628    1.8910 C.3     1  LIG1       -0.0377
     11 H          -4.3101    0.9460    2.1452 H       1  LIG1        0.0278
     12 H          -2.5756    1.2146    1.8990 H       1  LIG1        0.0278
     13 H          -3.1354   -0.2784    2.6558 H       1  LIG1        0.0278
     14 C          -6.4581    1.4040   -0.8509 C.ar    1  LIG1        0.0374
     15 C          -5.1362    1.4427   -0.3978 C.ar    1  LIG1        0.0190
     16 C          -4.6721    2.6532    0.1021 C.ar    1  LIG1       -0.0462
     17 C          -5.5003    3.7754    0.1447 C.ar    1  LIG1       -0.0238
     18 C          -6.8046    3.6192   -0.3477 C.ar    1  LIG1        0.0753
     19 N          -7.2648    2.4530   -0.8150 N.ar    1  LIG1       -0.2540
     20 H          -3.6504    2.7383    0.4547 H       1  LIG1        0.0628
     21 H          -6.8601    0.4826   -1.2540 H       1  LIG1        0.0836
     22 C          -4.9756    5.0684    0.7435 C.3     1  LIG1       -0.0377
     23 H          -5.7781    5.6250    1.2267 H       1  LIG1        0.0278
     24 H          -4.5239    5.7018   -0.0231 H       1  LIG1        0.0278
     25 H          -4.2096    4.8391    1.4842 H       1  LIG1        0.0278
     26 C          -9.1245    4.4565    0.0200 C.ar    1  LIG1        0.0374
     27 C          -7.8064    4.7270   -0.3608 C.ar    1  LIG1        0.0190
     28 C          -7.5163    6.0271   -0.7556 C.ar    1  LIG1       -0.0462
     29 C          -8.5050    7.0123   -0.7654 C.ar    1  LIG1       -0.0238
     30 C          -9.7941    6.6208   -0.3729 C.ar    1  LIG1        0.0753
     31 N         -10.0777    5.3745    0.0245 N.ar    1  LIG1       -0.2540
     32 H          -6.5135    6.2867   -1.0746 H       1  LIG1        0.0628
     33 H          -9.3986    3.4551    0.3274 H       1  LIG1        0.0836
     34 C          -8.1329    8.4325   -1.1548 C.3     1  LIG1       -0.0377
     35 H          -8.7528    9.1565   -0.6273 H       1  LIG1        0.0278
     36 H          -8.2528    8.5893   -2.2284 H       1  LIG1        0.0278
     37 H          -7.0880    8.6131   -0.9018 H       1  LIG1        0.0278
     38 C         -11.2196    8.4875   -1.3390 C.ar    1  LIG1        0.0367
     39 C         -10.9565    7.5597   -0.3285 C.ar    1  LIG1        0.0189
     40 C         -11.8614    7.4794    0.7280 C.ar    1  LIG1       -0.0468
     41 C         -12.9572    8.3358    0.7700 C.ar    1  LIG1       -0.0317
     42 C         -13.0981    9.2373   -0.2860 C.ar    1  LIG1        0.0305
     43 N         -12.2640    9.3098   -1.3205 N.ar    1  LIG1       -0.2623
     44 H         -11.7001    6.7367    1.5011 H       1  LIG1        0.0628
     45 H         -13.9369    9.9256   -0.3010 H       1  LIG1        0.0832
     46 H         -10.5785    8.5485   -2.2101 H       1  LIG1        0.0836
     47 C         -13.9549    8.2905    1.9101 C.3     1  LIG1       -0.0383
     48 H         -13.4721    8.5712    2.8472 H       1  LIG1        0.0278
     49 H         -14.3576    7.2828    2.0184 H       1  LIG1        0.0278
     50 H         -14.7800    8.9774    1.7241 H       1  LIG1        0.0278
@<TRIPOS>BOND
     1     9     1    1
     2    36    34    1
     3    46    38    1
     4     1     6   ar
     5     1     2   ar
     6     6     5   ar
     7    38    43   ar
     8    38    39   ar
     9    43    42   ar
    10    21    14    1
    11    34    37    1
    12    34    29    1
    13    34    35    1
    14     8     2    1
    15    32    28    1
    16     2     3   ar
    17    14    19   ar
    18    14    15   ar
    19    19    18   ar
    20    29    28   ar
    21    29    30   ar
    22    28    27   ar
    23     5    15    1
    24     5     4   ar
    25    15    16   ar
    26    30    39    1
    27    30    31   ar
    28    27    18    1
    29    27    26   ar
    30    18    17   ar
    31    39    40   ar
    32    45    42    1
    33    42    41   ar
    34    24    22    1
    35    26    31   ar
    36    26    33    1
    37    16    17   ar
    38    16    20    1
    39    17    22    1
    40     3     4   ar
    41     3     7    1
    42     4    10    1
    43    40    41   ar
    44    40    44    1
    45    22    23    1
    46    22    25    1
    47    41    47    1
    48    50    47    1
    49    10    12    1
    50    10    11    1
    51    10    13    1
    52    47    49    1
    53    47    48    1
