@<TRIPOS>MOLECULE
mol_data/opt/m06hf/geoms/mol2/6ai6ai6ai-6ai-.out
 50 53 0 0 0
SMALL
GASTEIGER

@<TRIPOS>ATOM
      1 C          -4.3333   -1.9491   -1.4399 C.ar    1  LIG1        0.0283
      2 C          -3.1448   -2.2651   -0.7884 C.ar    1  LIG1       -0.0433
      3 C          -2.6261   -1.3355    0.1016 C.ar    1  LIG1       -0.0554
      4 C          -3.2708   -0.1157    0.3068 C.ar    1  LIG1       -0.0244
      5 C          -4.4424    0.1132   -0.4343 C.ar    1  LIG1        0.0753
      6 N          -4.9633   -0.7938   -1.2658 N.ar    1  LIG1       -0.2547
      7 H          -1.7205   -1.5561    0.6550 H       1  LIG1        0.0621
      8 H          -2.6578   -3.2144   -0.9614 H       1  LIG1        0.0633
      9 H          -4.7964   -2.6487   -2.1251 H       1  LIG1        0.0830
     10 C          -2.7188    0.8627    1.3285 C.3     1  LIG1       -0.0377
     11 H          -3.5194    1.4509    1.7752 H       1  LIG1        0.0278
     12 H          -1.9977    1.5433    0.8710 H       1  LIG1        0.0278
     13 H          -2.2071    0.3095    2.1162 H       1  LIG1        0.0278
     14 C          -6.6264    1.3106   -0.2734 C.ar    1  LIG1        0.0374
     15 C          -5.2308    1.3786   -0.3322 C.ar    1  LIG1        0.0190
     16 C          -4.6586    2.6443   -0.3206 C.ar    1  LIG1       -0.0462
     17 C          -5.4511    3.7915   -0.2545 C.ar    1  LIG1       -0.0238
     18 C          -6.8404    3.5994   -0.2168 C.ar    1  LIG1        0.0753
     19 N          -7.3989    2.3828   -0.2078 N.ar    1  LIG1       -0.2540
     20 H          -3.5812    2.7535   -0.3757 H       1  LIG1        0.0628
     21 H          -7.1157    0.3446   -0.2837 H       1  LIG1        0.0836
     22 C          -4.7795    5.1521   -0.1864 C.3     1  LIG1       -0.0377
     23 H          -5.3800    5.8548    0.3900 H       1  LIG1        0.0278
     24 H          -4.6236    5.5642   -1.1853 H       1  LIG1        0.0278
     25 H          -3.8054    5.0480    0.2916 H       1  LIG1        0.0278
     26 C          -7.6895    5.9026   -0.8832 C.ar    1  LIG1        0.0374
     27 C          -7.8229    4.7231   -0.1503 C.ar    1  LIG1        0.0190
     28 C          -8.9613    4.5943    0.6419 C.ar    1  LIG1       -0.0462
     29 C          -9.9064    5.6130    0.7067 C.ar    1  LIG1       -0.0238
     30 C          -9.6679    6.7530   -0.0815 C.ar    1  LIG1        0.0753
     31 N          -8.5809    6.8853   -0.8446 N.ar    1  LIG1       -0.2540
     32 H          -9.0951    3.6832    1.2135 H       1  LIG1        0.0628
     33 H          -6.8473    6.0523   -1.5473 H       1  LIG1        0.0836
     34 C         -11.1005    5.4699    1.6339 C.3     1  LIG1       -0.0377
     35 H         -10.8323    4.8207    2.4671 H       1  LIG1        0.0278
     36 H         -11.9480    5.0185    1.1144 H       1  LIG1        0.0278
     37 H         -11.4073    6.4391    2.0253 H       1  LIG1        0.0278
     38 C         -10.0670    9.2152   -0.0660 C.ar    1  LIG1        0.0367
     39 C         -10.5988    7.9216   -0.1150 C.ar    1  LIG1        0.0189
     40 C         -11.9778    7.7937   -0.2416 C.ar    1  LIG1       -0.0468
     41 C         -12.7793    8.9343   -0.2925 C.ar    1  LIG1       -0.0317
     42 C         -12.1339   10.1660   -0.2135 C.ar    1  LIG1        0.0305
     43 N         -10.8127   10.3113   -0.1053 N.ar    1  LIG1       -0.2623
     44 H         -12.4306    6.8120   -0.3261 H       1  LIG1        0.0628
     45 H         -12.7127   11.0829   -0.2470 H       1  LIG1        0.0832
     46 H          -8.9941    9.3463    0.0037 H       1  LIG1        0.0836
     47 C         -14.2848    8.8359   -0.4398 C.3     1  LIG1       -0.0383
     48 H         -14.7150    8.2926    0.4030 H       1  LIG1        0.0278
     49 H         -14.5410    8.3066   -1.3587 H       1  LIG1        0.0278
     50 H         -14.7299    9.8297   -0.4761 H       1  LIG1        0.0278
@<TRIPOS>BOND
     1     9     1    1
     2    33    26    1
     3     1     6   ar
     4     1     2   ar
     5    49    47    1
     6     6     5   ar
     7    24    22    1
     8     8     2    1
     9    26    31   ar
    10    26    27   ar
    11    31    30   ar
    12     2     3   ar
    13    50    47    1
    14    47    41    1
    15    47    48    1
    16     5    15    1
    17     5     4   ar
    18    20    16    1
    19    15    16   ar
    20    15    14   ar
    21    44    40    1
    22    16    17   ar
    23    41    40   ar
    24    41    42   ar
    25    21    14    1
    26    14    19   ar
    27    17    18   ar
    28    17    22    1
    29    45    42    1
    30    40    39   ar
    31    18    19   ar
    32    18    27    1
    33    42    43   ar
    34    22    25    1
    35    22    23    1
    36    27    28   ar
    37    39    30    1
    38    39    38   ar
    39    43    38   ar
    40    30    29   ar
    41    38    46    1
    42     3     4   ar
    43     3     7    1
    44     4    10    1
    45    28    29   ar
    46    28    32    1
    47    29    34    1
    48    12    10    1
    49    36    34    1
    50    10    11    1
    51    10    13    1
    52    34    37    1
    53    34    35    1
