@<TRIPOS>MOLECULE
mol_data/opt/m06hf/geoms/mol2/6ai6ai-6ai.out
 38 40 0 0 0
SMALL
GASTEIGER

@<TRIPOS>ATOM
      1 C          -4.5095   -2.1238   -0.6393 C.ar    1  LIG1        0.0283
      2 C          -3.1422   -2.2204   -0.3993 C.ar    1  LIG1       -0.0433
      3 C          -2.4664   -1.0657   -0.0324 C.ar    1  LIG1       -0.0554
      4 C          -3.1417    0.1516    0.0626 C.ar    1  LIG1       -0.0244
      5 C          -4.5132    0.1398   -0.2440 C.ar    1  LIG1        0.0753
      6 N          -5.1735   -0.9776   -0.5624 N.ar    1  LIG1       -0.2547
      7 H          -1.4077   -1.1018    0.1976 H       1  LIG1        0.0621
      8 H          -2.6344   -3.1716   -0.4801 H       1  LIG1        0.0633
      9 H          -5.0917   -2.9984   -0.9029 H       1  LIG1        0.0830
     10 C          -2.3926    1.3872    0.5302 C.3     1  LIG1       -0.0377
     11 H          -3.0560    2.0641    1.0670 H       1  LIG1        0.0278
     12 H          -1.9543    1.9240   -0.3135 H       1  LIG1        0.0278
     13 H          -1.5839    1.0857    1.1959 H       1  LIG1        0.0278
     14 C          -4.9495    2.6017   -0.7032 C.ar    1  LIG1        0.0374
     15 C          -5.3666    1.3665   -0.2069 C.ar    1  LIG1        0.0190
     16 C          -6.6605    1.2928    0.3014 C.ar    1  LIG1       -0.0462
     17 C          -7.4868    2.4127    0.3242 C.ar    1  LIG1       -0.0238
     18 C          -6.9624    3.6001   -0.2167 C.ar    1  LIG1        0.0753
     19 N          -5.7212    3.6807   -0.7033 N.ar    1  LIG1       -0.2540
     20 H          -7.0144    0.3440    0.6879 H       1  LIG1        0.0628
     21 H          -3.9654    2.7207   -1.1396 H       1  LIG1        0.0836
     22 C          -8.8630    2.3079    0.9584 C.3     1  LIG1       -0.0377
     23 H          -8.8367    1.5540    1.7449 H       1  LIG1        0.0278
     24 H          -9.6103    2.0040    0.2229 H       1  LIG1        0.0278
     25 H          -9.1675    3.2600    1.3913 H       1  LIG1        0.0278
     26 C          -9.0755    4.9343   -0.6568 C.ar    1  LIG1        0.0367
     27 C          -7.7328    4.8799   -0.2730 C.ar    1  LIG1        0.0189
     28 C          -7.0901    6.0841    0.0043 C.ar    1  LIG1       -0.0468
     29 C          -7.7975    7.2807   -0.0651 C.ar    1  LIG1       -0.0317
     30 C          -9.1406    7.2025   -0.4352 C.ar    1  LIG1        0.0305
     31 N          -9.7666    6.0668   -0.7349 N.ar    1  LIG1       -0.2623
     32 H          -6.0378    6.0715    0.2644 H       1  LIG1        0.0628
     33 H          -9.7362    8.1070   -0.5037 H       1  LIG1        0.0832
     34 H          -9.6038    4.0311   -0.9369 H       1  LIG1        0.0836
     35 C          -7.1368    8.6104    0.2400 C.3     1  LIG1       -0.0383
     36 H          -7.8464    9.4275    0.1139 H       1  LIG1        0.0278
     37 H          -6.2931    8.7746   -0.4316 H       1  LIG1        0.0278
     38 H          -6.7680    8.6242    1.2665 H       1  LIG1        0.0278
@<TRIPOS>BOND
     1    21    14    1
     2    34    26    1
     3     9     1    1
     4    31    26   ar
     5    31    30   ar
     6    19    14   ar
     7    19    18   ar
     8    14    15   ar
     9    26    27   ar
    10     1     6   ar
    11     1     2   ar
    12     6     5   ar
    13    33    30    1
    14     8     2    1
    15    30    29   ar
    16    37    35    1
    17     2     3   ar
    18    12    10    1
    19    27    18    1
    20    27    28   ar
    21     5    15    1
    22     5     4   ar
    23    18    17   ar
    24    15    16   ar
    25    29    28   ar
    26    29    35    1
    27     3     4   ar
    28     3     7    1
    29    28    32    1
    30     4    10    1
    31    36    35    1
    32    24    22    1
    33    35    38    1
    34    16    17   ar
    35    16    20    1
    36    17    22    1
    37    10    11    1
    38    10    13    1
    39    22    25    1
    40    22    23    1
