@<TRIPOS>MOLECULE
mol_data/opt/m06hf/geoms/mol2/6ai6ai6ai6ai.out
 50 53 0 0 0
SMALL
GASTEIGER

@<TRIPOS>ATOM
      1 C          -4.2553   -1.7484   -1.8717 C.ar    1  LIG1        0.0283
      2 C          -3.2192   -2.2595   -1.0959 C.ar    1  LIG1       -0.0433
      3 C          -2.8252   -1.5341    0.0193 C.ar    1  LIG1       -0.0554
      4 C          -3.4404   -0.3207    0.3277 C.ar    1  LIG1       -0.0244
      5 C          -4.4505    0.1165   -0.5454 C.ar    1  LIG1        0.0753
      6 N          -4.8540   -0.5948   -1.6016 N.ar    1  LIG1       -0.2547
      7 H          -2.0443   -1.9127    0.6687 H       1  LIG1        0.0621
      8 H          -2.7534   -3.2009   -1.3508 H       1  LIG1        0.0633
      9 H          -4.6185   -2.2853   -2.7398 H       1  LIG1        0.0830
     10 C          -3.0359    0.4283    1.5853 C.3     1  LIG1       -0.0377
     11 H          -3.8805    0.9786    1.9986 H       1  LIG1        0.0278
     12 H          -2.2272    1.1327    1.3791 H       1  LIG1        0.0278
     13 H          -2.6807   -0.2835    2.3304 H       1  LIG1        0.0278
     14 C          -6.5767    1.4232   -0.5319 C.ar    1  LIG1        0.0374
     15 C          -5.1908    1.3991   -0.3460 C.ar    1  LIG1        0.0190
     16 C          -4.5760    2.5983   -0.0079 C.ar    1  LIG1       -0.0462
     17 C          -5.3208    3.7688    0.1423 C.ar    1  LIG1       -0.0238
     18 C          -6.7033    3.6721   -0.0769 C.ar    1  LIG1        0.0753
     19 N          -7.3054    2.5191   -0.3907 N.ar    1  LIG1       -0.2540
     20 H          -3.5018    2.6360    0.1340 H       1  LIG1        0.0628
     21 H          -7.0959    0.5131   -0.8054 H       1  LIG1        0.0836
     22 C          -4.6195    5.0486    0.5638 C.3     1  LIG1       -0.0377
     23 H          -5.2794    5.6744    1.1635 H       1  LIG1        0.0278
     24 H          -4.2903    5.6204   -0.3063 H       1  LIG1        0.0278
     25 H          -3.7387    4.7988    1.1554 H       1  LIG1        0.0278
     26 C          -8.8581    4.6519    0.7034 C.ar    1  LIG1        0.0374
     27 C          -7.6316    4.8347    0.0569 C.ar    1  LIG1        0.0190
     28 C          -7.3639    6.1015   -0.4471 C.ar    1  LIG1       -0.0462
     29 C          -8.2874    7.1383   -0.3059 C.ar    1  LIG1       -0.0238
     30 C          -9.4869    6.8342    0.3544 C.ar    1  LIG1        0.0753
     31 N          -9.7464    5.6209    0.8560 N.ar    1  LIG1       -0.2540
     32 H          -6.4332    6.2927   -0.9693 H       1  LIG1        0.0628
     33 H          -9.1113    3.6782    1.1041 H       1  LIG1        0.0836
     34 C          -7.9419    8.5209   -0.8307 C.3     1  LIG1       -0.0377
     35 H          -8.4165    9.2948   -0.2288 H       1  LIG1        0.0278
     36 H          -8.2653    8.6378   -1.8672 H       1  LIG1        0.0278
     37 H          -6.8615    8.6614   -0.7968 H       1  LIG1        0.0278
     38 C         -11.1959    7.8817    1.8352 C.ar    1  LIG1        0.0367
     39 C         -10.5639    7.8435    0.5863 C.ar    1  LIG1        0.0189
     40 C         -11.0110    8.7258   -0.3913 C.ar    1  LIG1       -0.0468
     41 C         -12.0379    9.6241   -0.0996 C.ar    1  LIG1       -0.0317
     42 C         -12.5690    9.5826    1.1870 C.ar    1  LIG1        0.0305
     43 N         -12.1668    8.7343    2.1341 N.ar    1  LIG1       -0.2623
     44 H         -10.5833    8.7016   -1.3876 H       1  LIG1        0.0628
     45 H         -13.3669   10.2631    1.4646 H       1  LIG1        0.0832
     46 H         -10.8908    7.1832    2.6046 H       1  LIG1        0.0836
     47 C         -12.5576   10.5944   -1.1416 C.3     1  LIG1       -0.0383
     48 H         -13.3862   11.1769   -0.7404 H       1  LIG1        0.0278
     49 H         -12.9072   10.0531   -2.0219 H       1  LIG1        0.0278
     50 H         -11.7678   11.2809   -1.4505 H       1  LIG1        0.0278
@<TRIPOS>BOND
     1     9     1    1
     2    49    47    1
     3     1     6   ar
     4     1     2   ar
     5    36    34    1
     6     6     5   ar
     7    50    47    1
     8    44    40    1
     9     8     2    1
    10    47    48    1
    11    47    41    1
    12     2     3   ar
    13    32    28    1
    14    34    37    1
    15    34    29    1
    16    34    35    1
    17    21    14    1
    18     5    15    1
    19     5     4   ar
    20    14    19   ar
    21    14    15   ar
    22    28    29   ar
    23    28    27   ar
    24    40    41   ar
    25    40    39   ar
    26    19    18   ar
    27    15    16   ar
    28    24    22    1
    29    29    30   ar
    30    41    42   ar
    31    18    27    1
    32    18    17   ar
    33    16    20    1
    34    16    17   ar
    35     3     4   ar
    36     3     7    1
    37    27    26   ar
    38    17    22    1
    39     4    10    1
    40    30    39    1
    41    30    31   ar
    42    22    25    1
    43    22    23    1
    44    39    38   ar
    45    26    31   ar
    46    26    33    1
    47    42    45    1
    48    42    43   ar
    49    12    10    1
    50    10    11    1
    51    10    13    1
    52    38    43   ar
    53    38    46    1
