@<TRIPOS>MOLECULE
mol_data/opt/m06hf/geoms/mol2/6ai6ai-6ai-6ai.out
 50 53 0 0 0
SMALL
GASTEIGER

@<TRIPOS>ATOM
      1 C          -4.5121   -2.2446   -0.2890 C.ar    1  LIG1        0.0283
      2 C          -3.1225   -2.3185   -0.3215 C.ar    1  LIG1       -0.0433
      3 C          -2.4097   -1.1302   -0.2618 C.ar    1  LIG1       -0.0554
      4 C          -3.0756    0.0946   -0.1975 C.ar    1  LIG1       -0.0244
      5 C          -4.4798    0.0522   -0.2125 C.ar    1  LIG1        0.0753
      6 N          -5.1689   -1.0930   -0.2346 N.ar    1  LIG1       -0.2547
      7 H          -1.3261   -1.1433   -0.2499 H       1  LIG1        0.0621
      8 H          -2.6225   -3.2757   -0.3737 H       1  LIG1        0.0633
      9 H          -5.1181   -3.1421   -0.3070 H       1  LIG1        0.0830
     10 C          -2.2676    1.3740   -0.0665 C.3     1  LIG1       -0.0377
     11 H          -2.8146    2.1266    0.4998 H       1  LIG1        0.0278
     12 H          -2.0223    1.7858   -1.0474 H       1  LIG1        0.0278
     13 H          -1.3334    1.1556    0.4511 H       1  LIG1        0.0278
     14 C          -5.0460    2.4367   -0.8870 C.ar    1  LIG1        0.0374
     15 C          -5.3326    1.2789   -0.1645 C.ar    1  LIG1        0.0190
     16 C          -6.4971    1.2801    0.5996 C.ar    1  LIG1       -0.0462
     17 C          -7.3205    2.4009    0.6478 C.ar    1  LIG1       -0.0238
     18 C          -6.9319    3.5080   -0.1280 C.ar    1  LIG1        0.0753
     19 N          -5.8186    3.5153   -0.8645 N.ar    1  LIG1       -0.2540
     20 H          -6.7487    0.3900    1.1645 H       1  LIG1        0.0628
     21 H          -4.1744    2.4905   -1.5274 H       1  LIG1        0.0836
     22 C          -8.5444    2.3925    1.5466 C.3     1  LIG1       -0.0377
     23 H          -8.3754    1.7080    2.3774 H       1  LIG1        0.0278
     24 H          -9.4272    2.0503    1.0027 H       1  LIG1        0.0278
     25 H          -8.7424    3.3879    1.9433 H       1  LIG1        0.0278
     26 C          -7.0188    5.9993   -0.1436 C.ar    1  LIG1        0.0374
     27 C          -7.7087    4.7832   -0.1755 C.ar    1  LIG1        0.0190
     28 C          -9.0926    4.8440   -0.2809 C.ar    1  LIG1       -0.0462
     29 C          -9.7539    6.0714   -0.3516 C.ar    1  LIG1       -0.0238
     30 C          -8.9554    7.2242   -0.3283 C.ar    1  LIG1        0.0753
     31 N          -7.6232    7.1745   -0.2064 N.ar    1  LIG1       -0.2540
     32 H          -9.6747    3.9307   -0.3216 H       1  LIG1        0.0628
     33 H          -5.9386    5.9999   -0.0666 H       1  LIG1        0.0836
     34 C         -11.2718    6.0942   -0.4085 C.3     1  LIG1       -0.0377
     35 H         -11.6641    5.2174    0.1068 H       1  LIG1        0.0278
     36 H         -11.6272    6.0676   -1.4403 H       1  LIG1        0.0278
     37 H         -11.6654    6.9897    0.0709 H       1  LIG1        0.0278
     38 C         -10.5353    8.9611   -1.2928 C.ar    1  LIG1        0.0367
     39 C          -9.5131    8.6086   -0.4084 C.ar    1  LIG1        0.0189
     40 C          -8.9586    9.6186    0.3749 C.ar    1  LIG1       -0.0468
     41 C          -9.4550   10.9156    0.2885 C.ar    1  LIG1       -0.0317
     42 C         -10.4957   11.1374   -0.6146 C.ar    1  LIG1        0.0305
     43 N         -11.0196   10.1946   -1.3940 N.ar    1  LIG1       -0.2623
     44 H          -8.1351    9.3769    1.0372 H       1  LIG1        0.0628
     45 H         -10.9177   12.1316   -0.7196 H       1  LIG1        0.0832
     46 H         -10.9597    8.2241   -1.9638 H       1  LIG1        0.0836
     47 C          -8.8835   12.0406    1.1282 C.3     1  LIG1       -0.0383
     48 H          -9.4284   12.9668    0.9481 H       1  LIG1        0.0278
     49 H          -7.8335   12.1999    0.8791 H       1  LIG1        0.0278
     50 H          -8.9526   11.7951    2.1885 H       1  LIG1        0.0278
@<TRIPOS>BOND
     1    46    38    1
     2    21    14    1
     3    36    34    1
     4    43    38   ar
     5    43    42   ar
     6    38    39   ar
     7    12    10    1
     8    14    19   ar
     9    14    15   ar
    10    19    18   ar
    11    45    42    1
    12    42    41   ar
    13    34    29    1
    14    34    37    1
    15    34    35    1
    16    39    30    1
    17    39    40   ar
    18     8     2    1
    19    29    30   ar
    20    29    28   ar
    21    30    31   ar
    22    32    28    1
    23     2     1   ar
    24     2     3   ar
    25     9     1    1
    26     1     6   ar
    27    28    27   ar
    28     3     7    1
    29     3     4   ar
    30     6     5   ar
    31     5     4   ar
    32     5    15    1
    33    31    26   ar
    34     4    10    1
    35    27    26   ar
    36    27    18    1
    37    15    16   ar
    38    26    33    1
    39    18    17   ar
    40    10    13    1
    41    10    11    1
    42    41    40   ar
    43    41    47    1
    44    40    44    1
    45    16    17   ar
    46    16    20    1
    47    17    22    1
    48    49    47    1
    49    48    47    1
    50    24    22    1
    51    47    50    1
    52    22    25    1
    53    22    23    1
