@<TRIPOS>MOLECULE
mol_data/opt/m06hf/geoms/mol2/6al13ff-6af-12hl.out
 48 51 0 0 0
SMALL
GASTEIGER

@<TRIPOS>ATOM
      1 C          -4.6920   -1.8621    1.3109 C.ar    1  LIG1        0.0286
      2 C          -3.3541   -2.1751    1.1380 C.ar    1  LIG1       -0.0401
      3 C          -2.5195   -1.2370    0.5281 C.ar    1  LIG1       -0.0163
      4 C          -3.0596   -0.0244    0.1231 C.ar    1  LIG1        0.1475
      5 C          -4.4255    0.2250    0.3715 C.ar    1  LIG1        0.1322
      6 N          -5.2064   -0.6898    0.9372 N.ar    1  LIG1       -0.2497
      7 H          -1.4742   -1.4587    0.3629 H       1  LIG1        0.0655
      8 H          -2.9665   -3.1303    1.4627 H       1  LIG1        0.0634
      9 H          -5.3783   -2.5640    1.7661 H       1  LIG1        0.0830
     10 O          -2.3924    0.9495   -0.5150 O.3     1  LIG1       -0.4929
     11 C          -0.9965    0.8284   -0.6876 C.3     1  LIG1        0.0789
     12 H          -0.6833    1.7582   -1.1542 H       1  LIG1        0.0660
     13 H          -0.4981    0.7086    0.2778 H       1  LIG1        0.0660
     14 H          -0.7576   -0.0161   -1.3397 H       1  LIG1        0.0660
     15 C          -5.0953    1.4834    0.0015 C.ar    1  LIG1        0.1148
     16 C          -4.7365    2.7633   -0.4064 C.ar    1  LIG1        0.1864
     17 C          -5.9349    3.5026   -0.5316 C.ar    1  LIG1        0.1849
     18 C          -6.9987    2.6857   -0.1978 C.ar    1  LIG1        0.0943
     19 N          -6.4639    1.4767    0.1048 N.ar    1  LIG1       -0.3469
     20 H          -6.9361    0.6703    0.4922 H       1  LIG1        0.1662
     21 O          -3.5205    3.3211   -0.6401 O.3     1  LIG1       -0.5019
     22 H          -3.6894    4.2545   -0.8292 H       1  LIG1        0.2924
     23 O          -5.9368    4.8274   -0.9094 O.3     1  LIG1       -0.5019
     24 H          -6.4161    4.9248   -1.7415 H       1  LIG1        0.2924
     25 C          -9.3834    1.9514   -0.3829 C.ar    1  LIG1        0.0378
     26 C          -8.4371    2.9712   -0.1970 C.ar    1  LIG1        0.0236
     27 C          -8.9049    4.2681   -0.0214 C.ar    1  LIG1       -0.0073
     28 C         -10.2780    4.5204   -0.0382 C.ar    1  LIG1        0.1464
     29 C         -11.1389    3.4195   -0.2148 C.ar    1  LIG1        0.1491
     30 N         -10.6841    2.1755   -0.3802 N.ar    1  LIG1       -0.2475
     31 H          -8.2255    5.0957    0.1361 H       1  LIG1        0.0662
     32 H          -9.0698    0.9293   -0.5592 H       1  LIG1        0.0836
     33 O         -10.6862    5.7901    0.0864 O.3     1  LIG1       -0.5045
     34 H         -11.6199    5.8653    0.4476 H       1  LIG1        0.2922
     35 C         -12.6063    3.5763   -0.2764 C.ar    1  LIG1        0.1807
     36 C         -13.4715    4.5079    0.2160 C.ar    1  LIG1        0.1149
     37 C         -14.7841    4.0912   -0.1889 C.ar    1  LIG1        0.1789
     38 C         -14.6191    2.9383   -0.8857 C.ar    1  LIG1        0.1361
     39 O         -13.3018    2.6276   -0.9285 O.2     1  LIG1       -0.4556
     40 H         -15.2924    2.2619   -1.3787 H       1  LIG1        0.1068
     41 N         -13.1490    5.6556    0.9966 N.pl3   1  LIG1       -0.3521
     42 H         -13.8030    6.4087    0.7960 H       1  LIG1        0.1425
     43 H         -13.1953    5.4516    1.9926 H       1  LIG1        0.1425
     44 O         -15.8869    4.8052    0.1281 O.3     1  LIG1       -0.4901
     45 C         -17.1005    4.2667   -0.3703 C.3     1  LIG1        0.0790
     46 H         -17.8919    4.9389   -0.0517 H       1  LIG1        0.0660
     47 H         -17.0660    4.2154   -1.4616 H       1  LIG1        0.0660
     48 H         -17.2646    3.2691    0.0446 H       1  LIG1        0.0660
@<TRIPOS>BOND
     1    24    23    1
     2    47    45    1
     3    40    38    1
     4    14    11    1
     5    12    11    1
     6    39    38   ar
     7    39    35   ar
     8    23    17    1
     9    38    37   ar
    10    22    21    1
    11    11    10    1
    12    11    13    1
    13    21    16    1
    14    32    25    1
    15    17    16   ar
    16    17    18   ar
    17    10     4    1
    18    16    15   ar
    19    25    30   ar
    20    25    26   ar
    21    30    29   ar
    22    45    46    1
    23    45    48    1
    24    45    44    1
    25    35    29    1
    26    35    36   ar
    27    29    28   ar
    28    18    26    1
    29    18    19   ar
    30    26    27   ar
    31    37    44    1
    32    37    36   ar
    33    28    27   ar
    34    28    33    1
    35    27    31    1
    36    15    19   ar
    37    15     5    1
    38    33    34    1
    39    19    20    1
    40     4     5   ar
    41     4     3   ar
    42    36    41    1
    43     7     3    1
    44     5     6   ar
    45     3     2   ar
    46    42    41    1
    47     6     1   ar
    48    41    43    1
    49     2     1   ar
    50     2     8    1
    51     1     9    1
