@<TRIPOS>MOLECULE
mol_data/opt/m06hf/geoms/mol2/6al12ie-12hf4aa.out
 47 50 0 0 0
SMALL
GASTEIGER

@<TRIPOS>ATOM
      1 C          -3.9472   -1.5520    2.0497 C.ar    1  LIG1        0.0286
      2 C          -2.7027   -1.7454    1.4652 C.ar    1  LIG1       -0.0401
      3 C          -2.2818   -0.8692    0.4684 C.ar    1  LIG1       -0.0163
      4 C          -3.1281    0.1716    0.0978 C.ar    1  LIG1        0.1490
      5 C          -4.3568    0.3074    0.7738 C.ar    1  LIG1        0.1476
      6 N          -4.7489   -0.5445    1.7128 N.ar    1  LIG1       -0.2482
      7 H          -1.3240   -1.0105   -0.0117 H       1  LIG1        0.0655
      8 H          -2.0732   -2.5677    1.7755 H       1  LIG1        0.0634
      9 H          -4.3129   -2.2199    2.8186 H       1  LIG1        0.0830
     10 O          -2.8657    1.0609   -0.8855 O.3     1  LIG1       -0.4929
     11 C          -1.6345    0.9504   -1.5740 C.3     1  LIG1        0.0789
     12 H          -1.6367    1.7486   -2.3116 H       1  LIG1        0.0660
     13 H          -0.7941    1.0828   -0.8874 H       1  LIG1        0.0660
     14 H          -1.5593   -0.0167   -2.0771 H       1  LIG1        0.0660
     15 C          -5.2854    1.4085    0.4466 C.ar    1  LIG1        0.1616
     16 C          -5.1130    2.7336    0.1968 C.ar    1  LIG1        0.0131
     17 C          -6.4463    3.2513   -0.0068 C.ar    1  LIG1        0.0771
     18 C          -7.3047    2.1964    0.1647 C.ar    1  LIG1        0.1882
     19 O          -6.6044    1.0882    0.4365 O.2     1  LIG1       -0.4485
     20 C          -3.8512    3.5522    0.1549 C.3     1  LIG1       -0.0349
     21 H          -4.0605    4.5490    0.5431 H       1  LIG1        0.0279
     22 H          -3.4928    3.6390   -0.8720 H       1  LIG1        0.0279
     23 H          -3.0738    3.0851    0.7572 H       1  LIG1        0.0279
     24 C          -6.7880    4.5940   -0.3596 C.1     1  LIG1       -0.0655
     25 C          -7.0557    5.7296   -0.6592 C.1     1  LIG1       -0.1138
     26 H          -7.2808    6.7284   -0.9540 H       1  LIG1        0.1232
     27 C          -8.7481    2.0957    0.1347 C.ar    1  LIG1        0.1960
     28 C          -9.7427    2.9756    0.4595 C.ar    1  LIG1        0.1169
     29 C         -10.9622    2.2466    0.2437 C.ar    1  LIG1        0.1846
     30 C         -10.6282    0.9996   -0.1917 C.ar    1  LIG1        0.1789
     31 O          -9.2872    0.9045   -0.2564 O.2     1  LIG1       -0.4460
     32 N          -9.7083    4.2523    0.9939 N.pl3   1  LIG1       -0.3521
     33 H          -8.8816    4.7882    0.7592 H       1  LIG1        0.1425
     34 H         -10.5656    4.7576    0.8077 H       1  LIG1        0.1425
     35 O         -12.2111    2.7787    0.4459 O.3     1  LIG1       -0.5020
     36 H         -12.4619    2.6479    1.3697 H       1  LIG1        0.2924
     37 C         -12.8141   -0.0687   -0.6986 C.ar    1  LIG1       -0.0510
     38 C         -13.5605   -1.1903   -1.0410 C.ar    1  LIG1       -0.0611
     39 C         -11.4260   -0.1748   -0.5635 C.ar    1  LIG1        0.0210
     40 C         -12.9321   -2.4150   -1.2565 C.ar    1  LIG1       -0.0617
     41 H         -14.6341   -1.1052   -1.1473 H       1  LIG1        0.0618
     42 C         -10.7930   -1.4014   -0.7818 C.ar    1  LIG1       -0.0510
     43 C         -11.5485   -2.5158   -1.1283 C.ar    1  LIG1       -0.0611
     44 H          -9.7183   -1.4698   -0.6756 H       1  LIG1        0.0625
     45 H         -13.5168   -3.2851   -1.5253 H       1  LIG1        0.0618
     46 H         -13.2910    0.8903   -0.5451 H       1  LIG1        0.0625
     47 H         -11.0558   -3.4645   -1.2968 H       1  LIG1        0.0618
@<TRIPOS>BOND
     1    12    11    1
     2    14    11    1
     3    11    13    1
     4    11    10    1
     5    45    40    1
     6    47    43    1
     7    40    43   ar
     8    40    38   ar
     9    41    38    1
    10    43    42   ar
    11    38    37   ar
    12    26    25    1
    13    10     4    1
    14    22    20    1
    15    42    44    1
    16    42    39   ar
    17    37    39   ar
    18    37    46    1
    19    25    24    3
    20    39    30    1
    21    24    17    1
    22    31    30   ar
    23    31    27   ar
    24    30    29   ar
    25     7     3    1
    26    17    18   ar
    27    17    16   ar
    28     4     3   ar
    29     4     5   ar
    30    27    18    1
    31    27    28   ar
    32    20    16    1
    33    20    21    1
    34    20    23    1
    35    18    19   ar
    36    16    15   ar
    37    29    35    1
    38    29    28   ar
    39    19    15   ar
    40    35    36    1
    41    15     5    1
    42    28    32    1
    43     3     2   ar
    44    33    32    1
    45     5     6   ar
    46    34    32    1
    47     2     8    1
    48     2     1   ar
    49     6     1   ar
    50     1     9    1
