@<TRIPOS>MOLECULE
mol_data/opt/m06hf/geoms/mol2/6al6al6al.out
 41 43 0 0 0
SMALL
GASTEIGER

@<TRIPOS>ATOM
      1 C          -4.6948   -2.2813   -0.0006 C.ar    1  LIG1        0.0285
      2 C          -3.3204   -2.4683   -0.0006 C.ar    1  LIG1       -0.0401
      3 C          -2.5041   -1.3434   -0.0004 C.ar    1  LIG1       -0.0164
      4 C          -3.0856   -0.0782   -0.0003 C.ar    1  LIG1        0.1460
      5 C          -4.4953    0.0247   -0.0004 C.ar    1  LIG1        0.1140
      6 N          -5.2462   -1.0738   -0.0006 N.ar    1  LIG1       -0.2513
      7 H          -1.4297   -1.4578   -0.0003 H       1  LIG1        0.0655
      8 H          -2.8950   -3.4619   -0.0007 H       1  LIG1        0.0634
      9 H          -5.3764   -3.1224   -0.0008 H       1  LIG1        0.0830
     10 O          -2.3531    1.0642   -0.0001 O.3     1  LIG1       -0.4930
     11 C          -0.9397    0.9601   -0.0000 C.3     1  LIG1        0.0789
     12 H          -0.5691    1.9815    0.0001 H       1  LIG1        0.0660
     13 H          -0.5925    0.4418    0.8963 H       1  LIG1        0.0660
     14 H          -0.5924    0.4420   -0.8965 H       1  LIG1        0.0660
     15 C          -6.6576    1.2447   -0.0002 C.ar    1  LIG1        0.0378
     16 C          -5.2602    1.3127   -0.0003 C.ar    1  LIG1        0.0255
     17 C          -4.6930    2.5871   -0.0003 C.ar    1  LIG1       -0.0071
     18 C          -5.5147    3.7111   -0.0002 C.ar    1  LIG1        0.1466
     19 C          -6.9132    3.5477   -0.0001 C.ar    1  LIG1        0.1140
     20 N          -7.4303    2.3186   -0.0001 N.ar    1  LIG1       -0.2506
     21 H          -3.6228    2.6954   -0.0004 H       1  LIG1        0.0662
     22 H          -7.1477    0.2821   -0.0002 H       1  LIG1        0.0836
     23 O          -5.0067    4.9726   -0.0002 O.3     1  LIG1       -0.4929
     24 C          -3.6009    5.1374   -0.0002 C.3     1  LIG1        0.0789
     25 H          -3.4308    6.2111   -0.0001 H       1  LIG1        0.0660
     26 H          -3.1595    4.6933    0.8955 H       1  LIG1        0.0660
     27 H          -3.1595    4.6934   -0.8959 H       1  LIG1        0.0660
     28 C          -9.2703    4.3111    0.0007 C.ar    1  LIG1        0.0371
     29 C          -7.9164    4.6613    0.0001 C.ar    1  LIG1        0.0255
     30 C          -7.5926    6.0243   -0.0002 C.ar    1  LIG1       -0.0077
     31 C          -8.6280    6.9506    0.0001 C.ar    1  LIG1        0.1387
     32 C          -9.9485    6.4930    0.0007 C.ar    1  LIG1        0.0692
     33 N         -10.2578    5.2059    0.0010 N.ar    1  LIG1       -0.2590
     34 H          -6.5616    6.3344   -0.0006 H       1  LIG1        0.0662
     35 H         -10.7550    7.2166    0.0009 H       1  LIG1        0.0867
     36 H          -9.5452    3.2663    0.0009 H       1  LIG1        0.0836
     37 O          -8.4578    8.2985   -0.0001 O.3     1  LIG1       -0.4936
     38 C          -7.1332    8.7908   -0.0010 C.3     1  LIG1        0.0789
     39 H          -7.2191    9.8741   -0.0011 H       1  LIG1        0.0660
     40 H          -6.5969    8.4620    0.8930 H       1  LIG1        0.0660
     41 H          -6.5980    8.4617   -0.8955 H       1  LIG1        0.0660
@<TRIPOS>BOND
     1    14    11    1
     2    27    24    1
     3    41    38    1
     4    39    38    1
     5    38    37    1
     6    38    40    1
     7     9     1    1
     8     8     2    1
     9     1     2   ar
    10     1     6   ar
    11    34    30    1
    12     2     3   ar
    13     6     5   ar
    14     3     7    1
    15     3     4   ar
    16     5     4   ar
    17     5    16    1
    18    21    17    1
    19     4    10    1
    20    16    17   ar
    21    16    15   ar
    22    17    18   ar
    23    22    15    1
    24    15    20   ar
    25    30    31   ar
    26    30    29   ar
    27    18    23    1
    28    18    19   ar
    29    24    23    1
    30    24    25    1
    31    24    26    1
    32    37    31    1
    33    10    11    1
    34    20    19   ar
    35    19    29    1
    36    11    12    1
    37    11    13    1
    38    31    32   ar
    39    29    28   ar
    40    28    36    1
    41    28    33   ar
    42    32    35    1
    43    32    33   ar
