@<TRIPOS>MOLECULE
mol_data/opt/m06hf/geoms/mol2/6al6al.out
 28 29 0 0 0
SMALL
GASTEIGER

@<TRIPOS>ATOM
      1 C          -4.6486   -2.1873   -0.0003 C.ar    1  LIG1        0.0285
      2 C          -3.2674   -2.3109   -0.0003 C.ar    1  LIG1       -0.0401
      3 C          -2.5037   -1.1496   -0.0002 C.ar    1  LIG1       -0.0164
      4 C          -3.1430    0.0874   -0.0002 C.ar    1  LIG1        0.1460
      5 C          -4.5563    0.1272   -0.0002 C.ar    1  LIG1        0.1140
      6 N          -5.2542   -1.0059   -0.0003 N.ar    1  LIG1       -0.2513
      7 H          -1.4252   -1.2142   -0.0002 H       1  LIG1        0.0655
      8 H          -2.7964   -3.2838   -0.0003 H       1  LIG1        0.0634
      9 H          -5.2915   -3.0578   -0.0004 H       1  LIG1        0.0830
     10 O          -2.4628    1.2610   -0.0001 O.3     1  LIG1       -0.4930
     11 C          -1.0470    1.2243    0.0000 C.3     1  LIG1        0.0789
     12 H          -0.7253    2.2623    0.0001 H       1  LIG1        0.0660
     13 H          -0.6744    0.7229    0.8965 H       1  LIG1        0.0660
     14 H          -0.6743    0.7230   -0.8965 H       1  LIG1        0.0660
     15 C          -6.7724    1.2364    0.0001 C.ar    1  LIG1        0.0371
     16 C          -5.3818    1.3813   -0.0002 C.ar    1  LIG1        0.0255
     17 C          -4.8595    2.6811   -0.0004 C.ar    1  LIG1       -0.0077
     18 C          -5.7459    3.7510   -0.0003 C.ar    1  LIG1        0.1387
     19 C          -7.1196    3.4944   -0.0000 C.ar    1  LIG1        0.0692
     20 N          -7.6162    2.2677    0.0002 N.ar    1  LIG1       -0.2590
     21 H          -3.7944    2.8372   -0.0007 H       1  LIG1        0.0662
     22 H          -7.8100    4.3296    0.0001 H       1  LIG1        0.0867
     23 H          -7.2006    0.2445    0.0003 H       1  LIG1        0.0836
     24 O          -5.3779    5.0581   -0.0005 O.3     1  LIG1       -0.4936
     25 C          -3.9953    5.3512   -0.0011 C.3     1  LIG1        0.0789
     26 H          -3.9219    6.4353   -0.0013 H       1  LIG1        0.0660
     27 H          -3.5132    4.9479    0.8932 H       1  LIG1        0.0660
     28 H          -3.5139    4.9477   -0.8957 H       1  LIG1        0.0660
@<TRIPOS>BOND
     1    14    11    1
     2    28    25    1
     3    26    25    1
     4    25    24    1
     5    25    27    1
     6    21    17    1
     7    24    18    1
     8    17    18   ar
     9    17    16   ar
    10     9     1    1
    11    18    19   ar
    12     1     2   ar
    13     1     6   ar
    14     8     2    1
    15     2     3   ar
    16     6     5   ar
    17     5    16    1
    18     5     4   ar
    19     3     4   ar
    20     3     7    1
    21    16    15   ar
    22     4    10    1
    23    10    11    1
    24    19    22    1
    25    19    20   ar
    26    11    12    1
    27    11    13    1
    28    15    20   ar
    29    15    23    1
