@<TRIPOS>MOLECULE
mol_data/opt/m06hf/geoms/mol2/6al6al6al6al-.out
 54 57 0 0 0
SMALL
GASTEIGER

@<TRIPOS>ATOM
      1 C          -4.9625   -2.2739    0.0003 C.ar    1  LIG1        0.0285
      2 C          -3.6044   -2.5576   -0.0002 C.ar    1  LIG1       -0.0401
      3 C          -2.7101   -1.4936   -0.0007 C.ar    1  LIG1       -0.0164
      4 C          -3.2004   -0.1906   -0.0006 C.ar    1  LIG1        0.1460
      5 C          -4.5998    0.0118    0.0000 C.ar    1  LIG1        0.1140
      6 N          -5.4267   -1.0306    0.0004 N.ar    1  LIG1       -0.2513
      7 H          -1.6465   -1.6854   -0.0011 H       1  LIG1        0.0655
      8 H          -3.2506   -3.5786   -0.0003 H       1  LIG1        0.0634
      9 H          -5.7019   -3.0645    0.0007 H       1  LIG1        0.0830
     10 O          -2.3909    0.8975   -0.0010 O.3     1  LIG1       -0.4930
     11 C          -0.9869    0.7012   -0.0019 C.3     1  LIG1        0.0789
     12 H          -0.5519    1.6969   -0.0022 H       1  LIG1        0.0660
     13 H          -0.6736    0.1613    0.8946 H       1  LIG1        0.0660
     14 H          -0.6747    0.1612   -0.8987 H       1  LIG1        0.0660
     15 C          -6.6702    1.3814    0.0003 C.ar    1  LIG1        0.0378
     16 C          -5.2714    1.3507    0.0001 C.ar    1  LIG1        0.0255
     17 C          -4.6166    2.5821    0.0001 C.ar    1  LIG1       -0.0071
     18 C          -5.3570    3.7616    0.0002 C.ar    1  LIG1        0.1466
     19 C          -6.7625    3.6954    0.0003 C.ar    1  LIG1        0.1140
     20 N          -7.3661    2.5061    0.0003 N.ar    1  LIG1       -0.2506
     21 H          -3.5415    2.6146    0.0000 H       1  LIG1        0.0662
     22 H          -7.2261    0.4551    0.0003 H       1  LIG1        0.0836
     23 O          -4.7614    4.9846    0.0003 O.3     1  LIG1       -0.4929
     24 C          -3.3469    5.0436    0.0002 C.3     1  LIG1        0.0789
     25 H          -3.0955    6.1008    0.0003 H       1  LIG1        0.0660
     26 H          -2.9415    4.5669    0.8958 H       1  LIG1        0.0660
     27 H          -2.9415    4.5670   -0.8954 H       1  LIG1        0.0660
     28 C          -9.0608    4.6336    0.0006 C.ar    1  LIG1        0.0378
     29 C          -7.6819    4.8748    0.0004 C.ar    1  LIG1        0.0255
     30 C          -7.2773    6.2094    0.0002 C.ar    1  LIG1       -0.0071
     31 C          -8.2324    7.2229    0.0003 C.ar    1  LIG1        0.1466
     32 C          -9.5988    6.8861    0.0005 C.ar    1  LIG1        0.1140
     33 N          -9.9611    5.6032    0.0007 N.ar    1  LIG1       -0.2506
     34 H          -6.2288    6.4505    0.0001 H       1  LIG1        0.0662
     35 H          -9.4259    3.6169    0.0007 H       1  LIG1        0.0836
     36 O          -7.8900    8.5357    0.0002 O.3     1  LIG1       -0.4929
     37 C          -6.5176    8.8813   -0.0002 C.3     1  LIG1        0.0789
     38 H          -6.4904    9.9678   -0.0003 H       1  LIG1        0.0660
     39 H          -6.0222    8.4979    0.8952 H       1  LIG1        0.0660
     40 H          -6.0226    8.4977   -0.8957 H       1  LIG1        0.0660
     41 C         -10.5955    9.2684    0.0005 C.ar    1  LIG1        0.0371
     42 C         -10.7325    7.8689    0.0006 C.ar    1  LIG1        0.0255
     43 C         -12.0250    7.3530    0.0007 C.ar    1  LIG1       -0.0077
     44 C         -13.1137    8.2185    0.0007 C.ar    1  LIG1        0.1387
     45 C         -12.8710    9.5922    0.0006 C.ar    1  LIG1        0.0692
     46 N         -11.6368   10.0915    0.0005 N.ar    1  LIG1       -0.2590
     47 H         -12.1887    6.2843    0.0008 H       1  LIG1        0.0662
     48 H         -13.6782   10.3135    0.0007 H       1  LIG1        0.0867
     49 H          -9.6226    9.7294    0.0003 H       1  LIG1        0.0836
     50 O         -14.3495    7.6558    0.0009 O.3     1  LIG1       -0.4936
     51 C         -15.4656    8.5240    0.0010 C.3     1  LIG1        0.0789
     52 H         -16.3424    7.8822    0.0011 H       1  LIG1        0.0660
     53 H         -15.4684    9.1523    0.8953 H       1  LIG1        0.0660
     54 H         -15.4686    9.1522   -0.8935 H       1  LIG1        0.0660
@<TRIPOS>BOND
     1    14    11    1
     2    40    37    1
     3    27    24    1
     4    54    51    1
     5    12    11    1
     6    11    10    1
     7    11    13    1
     8     7     3    1
     9    10     4    1
    10     3     4   ar
    11     3     2   ar
    12     4     5   ar
    13     8     2    1
    14    38    37    1
    15     2     1   ar
    16    37    36    1
    17    37    39    1
    18     5    16    1
    19     5     6   ar
    20    21    17    1
    21    34    30    1
    22    17    16   ar
    23    17    18   ar
    24    16    15   ar
    25    36    31    1
    26    18    23    1
    27    18    19   ar
    28    24    23    1
    29    24    25    1
    30    24    26    1
    31    30    31   ar
    32    30    29   ar
    33    15    22    1
    34    15    20   ar
    35    31    32   ar
    36    19    20   ar
    37    19    29    1
    38     1     6   ar
    39     1     9    1
    40    49    41    1
    41    29    28   ar
    42    41    46   ar
    43    41    42   ar
    44    46    45   ar
    45    32    42    1
    46    32    33   ar
    47    42    43   ar
    48    28    33   ar
    49    28    35    1
    50    45    48    1
    51    45    44   ar
    52    43    44   ar
    53    43    47    1
    54    44    50    1
    55    50    51    1
    56    51    52    1
    57    51    53    1
