@<TRIPOS>MOLECULE
mol_data/opt/m06hf/geoms/mol2/6al6al-.out
 28 29 0 0 0
SMALL
GASTEIGER

@<TRIPOS>ATOM
      1 C          -4.6765   -2.0271   -0.0001 C.ar    1  LIG1        0.0285
      2 C          -3.2990   -2.1864   -0.0001 C.ar    1  LIG1       -0.0401
      3 C          -2.5056   -1.0451   -0.0001 C.ar    1  LIG1       -0.0164
      4 C          -3.1131    0.2081   -0.0002 C.ar    1  LIG1        0.1460
      5 C          -4.5242    0.2830   -0.0003 C.ar    1  LIG1        0.1140
      6 N          -5.2521   -0.8302   -0.0002 N.ar    1  LIG1       -0.2513
      7 H          -1.4289   -1.1354   -0.0001 H       1  LIG1        0.0655
      8 H          -2.8530   -3.1710    0.0000 H       1  LIG1        0.0634
      9 H          -5.3419   -2.8811   -0.0001 H       1  LIG1        0.0830
     10 O          -2.4085    1.3631   -0.0003 O.3     1  LIG1       -0.4930
     11 C          -0.9936    1.2956   -0.0003 C.3     1  LIG1        0.0789
     12 H          -0.6515    2.3266   -0.0004 H       1  LIG1        0.0660
     13 H          -0.6328    0.7861    0.8961 H       1  LIG1        0.0660
     14 H          -0.6329    0.7859   -0.8967 H       1  LIG1        0.0660
     15 C          -4.7734    2.8561   -0.0005 C.ar    1  LIG1        0.0371
     16 C          -5.3165    1.5596   -0.0004 C.ar    1  LIG1        0.0255
     17 C          -6.7035    1.4458   -0.0003 C.ar    1  LIG1       -0.0077
     18 C          -7.4898    2.5929   -0.0004 C.ar    1  LIG1        0.1387
     19 C          -6.8536    3.8346   -0.0005 C.ar    1  LIG1        0.0692
     20 N          -5.5272    3.9488   -0.0006 N.ar    1  LIG1       -0.2590
     21 H          -7.1724    0.4718   -0.0002 H       1  LIG1        0.0662
     22 H          -7.4126    4.7612   -0.0006 H       1  LIG1        0.0867
     23 H          -3.7081    3.0125   -0.0006 H       1  LIG1        0.0836
     24 O          -8.8352    2.4166   -0.0003 O.3     1  LIG1       -0.4936
     25 C          -9.6484    3.5743   -0.0004 C.3     1  LIG1        0.0789
     26 H         -10.6745    3.2172   -0.0004 H       1  LIG1        0.0660
     27 H          -9.4665    4.1756    0.8944 H       1  LIG1        0.0660
     28 H          -9.4665    4.1754   -0.8954 H       1  LIG1        0.0660
@<TRIPOS>BOND
     1    14    11    1
     2    28    25    1
     3    22    19    1
     4    20    19   ar
     5    20    15   ar
     6    23    15    1
     7    19    18   ar
     8    15    16   ar
     9    25    26    1
    10    25    24    1
    11    25    27    1
    12    12    11    1
    13    18    24    1
    14    18    17   ar
    15    16    17   ar
    16    16     5    1
    17    17    21    1
    18    11    10    1
    19    11    13    1
    20     5     6   ar
    21     5     4   ar
    22    10     4    1
    23     6     1   ar
    24     4     3   ar
    25     1     9    1
    26     1     2   ar
    27     3     2   ar
    28     3     7    1
    29     2     8    1
