@<TRIPOS>MOLECULE
mol_data/opt/m06hf/geoms/mol2/6al6al6al6al.out
 54 57 0 0 0
SMALL
GASTEIGER

@<TRIPOS>ATOM
      1 C          -4.7248   -2.3618   -0.2476 C.ar    1  LIG1        0.0285
      2 C          -3.3591   -2.5555   -0.3928 C.ar    1  LIG1       -0.0401
      3 C          -2.5298   -1.4392   -0.4347 C.ar    1  LIG1       -0.0164
      4 C          -3.0958   -0.1732   -0.3208 C.ar    1  LIG1        0.1460
      5 C          -4.4954   -0.0678   -0.1626 C.ar    1  LIG1        0.1140
      6 N          -5.2643   -1.1516   -0.1362 N.ar    1  LIG1       -0.2513
      7 H          -1.4630   -1.5633   -0.5562 H       1  LIG1        0.0655
      8 H          -2.9486   -3.5519   -0.4773 H       1  LIG1        0.0634
      9 H          -5.4102   -3.1989   -0.2175 H       1  LIG1        0.0830
     10 O          -2.3733    0.9744   -0.3641 O.3     1  LIG1       -0.4930
     11 C          -0.9958    0.8844   -0.6850 C.3     1  LIG1        0.0789
     12 H          -0.6380    1.9085   -0.7448 H       1  LIG1        0.0660
     13 H          -0.4505    0.3484    0.0951 H       1  LIG1        0.0660
     14 H          -0.8604    0.3882   -1.6484 H       1  LIG1        0.0660
     15 C          -6.5603    1.2788   -0.4293 C.ar    1  LIG1        0.0378
     16 C          -5.2166    1.2354   -0.0535 C.ar    1  LIG1        0.0255
     17 C          -4.6446    2.4099    0.4362 C.ar    1  LIG1       -0.0071
     18 C          -5.4174    3.5636    0.5113 C.ar    1  LIG1        0.1466
     19 C          -6.7588    3.5190    0.0849 C.ar    1  LIG1        0.1140
     20 N          -7.2902    2.3835   -0.3631 N.ar    1  LIG1       -0.2506
     21 H          -3.6152    2.4084    0.7558 H       1  LIG1        0.0662
     22 H          -7.0458    0.3834   -0.7920 H       1  LIG1        0.0836
     23 O          -4.9404    4.7428    0.9920 O.3     1  LIG1       -0.4929
     24 C          -3.6299    4.7620    1.5279 C.3     1  LIG1        0.0789
     25 H          -3.4731    5.7755    1.8873 H       1  LIG1        0.0660
     26 H          -3.5452    4.0574    2.3584 H       1  LIG1        0.0660
     27 H          -2.8924    4.5237    0.7575 H       1  LIG1        0.0660
     28 C          -9.0551    4.4461    0.2153 C.ar    1  LIG1        0.0378
     29 C          -7.6832    4.6892    0.1342 C.ar    1  LIG1        0.0255
     30 C          -7.2646    6.0190    0.0750 C.ar    1  LIG1       -0.0071
     31 C          -8.2150    7.0333    0.1045 C.ar    1  LIG1        0.1466
     32 C          -9.5793    6.6938    0.1882 C.ar    1  LIG1        0.1140
     33 N          -9.9568    5.4181    0.2461 N.ar    1  LIG1       -0.2506
     34 H          -6.2121    6.2427    0.0114 H       1  LIG1        0.0662
     35 H          -9.4190    3.4285    0.2525 H       1  LIG1        0.0836
     36 O          -7.8868    8.3528    0.0687 O.3     1  LIG1       -0.4929
     37 C          -6.5141    8.6967    0.0948 C.3     1  LIG1        0.0789
     38 H          -6.4821    9.7825    0.1280 H       1  LIG1        0.0660
     39 H          -6.0316    8.2838    0.9845 H       1  LIG1        0.0660
     40 H          -6.0072    8.3388   -0.8048 H       1  LIG1        0.0660
     41 C         -11.8718    7.3240    0.8790 C.ar    1  LIG1        0.0371
     42 C         -10.6807    7.7006    0.2580 C.ar    1  LIG1        0.0255
     43 C         -10.5913    8.9855   -0.2893 C.ar    1  LIG1       -0.0077
     44 C         -11.6921    9.8243   -0.1748 C.ar    1  LIG1        0.1387
     45 C         -12.8364    9.3538    0.4779 C.ar    1  LIG1        0.0692
     46 N         -12.9228    8.1364    0.9902 N.ar    1  LIG1       -0.2590
     47 H          -9.6840    9.2983   -0.7814 H       1  LIG1        0.0662
     48 H         -13.6921   10.0120    0.5701 H       1  LIG1        0.0867
     49 H         -11.9638    6.3288    1.2918 H       1  LIG1        0.0836
     50 O         -11.7541   11.0939   -0.6545 O.3     1  LIG1       -0.4936
     51 C         -10.5990   11.6058   -1.2880 C.3     1  LIG1        0.0789
     52 H         -10.8390   12.6286   -1.5662 H       1  LIG1        0.0660
     53 H          -9.7467   11.5977   -0.6026 H       1  LIG1        0.0660
     54 H         -10.3583   11.0262   -2.1833 H       1  LIG1        0.0660
@<TRIPOS>BOND
     1    54    51    1
     2    14    11    1
     3    52    51    1
     4    51    50    1
     5    51    53    1
     6    40    37    1
     7    22    15    1
     8    47    43    1
     9    12    11    1
    10    11    10    1
    11    11    13    1
    12    50    44    1
    13     7     3    1
    14     8     2    1
    15     3     2   ar
    16     3     4   ar
    17    15    20   ar
    18    15    16   ar
    19     2     1   ar
    20    10     4    1
    21    20    19   ar
    22     4     5   ar
    23    43    44   ar
    24    43    42   ar
    25     1     9    1
    26     1     6   ar
    27    44    45   ar
    28     5     6   ar
    29     5    16    1
    30    16    17   ar
    31    34    30    1
    32    36    37    1
    33    36    31    1
    34    30    31   ar
    35    30    29   ar
    36    19    29    1
    37    19    18   ar
    38    37    38    1
    39    37    39    1
    40    31    32   ar
    41    29    28   ar
    42    32    33   ar
    43    32    42    1
    44    28    33   ar
    45    28    35    1
    46    42    41   ar
    47    17    18   ar
    48    17    21    1
    49    45    48    1
    50    45    46   ar
    51    18    23    1
    52    27    24    1
    53    41    46   ar
    54    41    49    1
    55    23    24    1
    56    24    25    1
    57    24    26    1
