@<TRIPOS>MOLECULE
mol_data/opt/m06hf/geoms/mol2/6da12dh-12dh-6af4fi-4he-4fe12ae.out
 92 99 0 0 0
SMALL
GASTEIGER

@<TRIPOS>ATOM
      1 C          -3.6398   -1.1589   -1.3048 C.ar    1  LIG1        0.1408
      2 C          -2.2748   -1.0670   -1.0367 C.ar    1  LIG1       -0.0257
      3 C          -1.8216    0.0895   -0.4132 C.ar    1  LIG1       -0.0570
      4 C          -2.7319    1.0872   -0.0909 C.ar    1  LIG1       -0.0325
      5 C          -4.0776    0.8832   -0.4138 C.ar    1  LIG1        0.1088
      6 N          -4.5261   -0.2184   -1.0080 N.ar    1  LIG1       -0.2332
      7 H          -0.7729    0.2125   -0.1793 H       1  LIG1        0.0619
      8 H          -1.6119   -1.8748   -1.3109 H       1  LIG1        0.0646
      9 N          -4.5158   -3.3113   -2.4831 N.1     1  LIG1       -0.1893
     10 C          -4.1543   -2.3567   -1.9624 C.1     1  LIG1        0.1191
     11 H          -2.4082    1.9955    0.3977 H       1  LIG1        0.0640
     12 C          -5.1025    1.9029   -0.1080 C.ar    1  LIG1        0.1731
     13 C          -5.0241    3.1947    0.3459 C.ar    1  LIG1        0.1203
     14 C          -6.3729    3.6960    0.4471 C.ar    1  LIG1        0.0924
     15 C          -7.1542    2.6464    0.0298 C.ar    1  LIG1        0.1938
     16 O          -6.3725    1.5807   -0.3016 O.2     1  LIG1       -0.4469
     17 N          -2.9424    4.5932    0.9413 N.1     1  LIG1       -0.1907
     18 C          -3.8587    3.9558    0.6701 C.1     1  LIG1        0.1049
     19 N          -6.7074    4.9265    0.9439 N.pl3   1  LIG1       -0.3539
     20 H          -5.9359    5.5624    1.0853 H       1  LIG1        0.1425
     21 H          -7.5527    5.3681    0.6100 H       1  LIG1        0.1425
     22 C          -8.5829    2.4545   -0.0648 C.ar    1  LIG1        0.1916
     23 C          -9.6256    3.3274   -0.2455 C.ar    1  LIG1        0.1218
     24 C         -10.8343    2.5441   -0.2128 C.ar    1  LIG1        0.0894
     25 C         -10.4246    1.2573   -0.0165 C.ar    1  LIG1        0.1592
     26 O          -9.0604    1.2189    0.0619 O.2     1  LIG1       -0.4484
     27 N          -9.4484    5.8567   -0.7008 N.1     1  LIG1       -0.1907
     28 C          -9.5287    4.7271   -0.5006 C.1     1  LIG1        0.1050
     29 N         -12.1285    3.0365   -0.3518 N.pl3   1  LIG1       -0.3540
     30 H         -12.1608    4.0002   -0.6596 H       1  LIG1        0.1425
     31 H         -12.7290    2.4477   -0.9172 H       1  LIG1        0.1425
     32 C         -10.5176   -1.2275   -0.1359 C.ar    1  LIG1        0.0392
     33 C         -11.1550   -0.0017    0.0997 C.ar    1  LIG1        0.0407
     34 C         -12.5006   -0.0218    0.4513 C.ar    1  LIG1       -0.0059
     35 C         -13.1709   -1.2393    0.5335 C.ar    1  LIG1        0.1435
     36 C         -12.4490   -2.4211    0.2822 C.ar    1  LIG1        0.1157
     37 N         -11.1535   -2.3823   -0.0436 N.ar    1  LIG1       -0.2505
     38 H         -13.0464    0.8827    0.6891 H       1  LIG1        0.0662
     39 H          -9.4704   -1.2613   -0.4085 H       1  LIG1        0.0837
     40 O         -14.4942   -1.2055    0.8041 O.3     1  LIG1       -0.5046
     41 H         -14.7275   -1.9629    1.3769 H       1  LIG1        0.2922
     42 C         -14.0245   -4.2423    1.1575 C.ar    1  LIG1        0.1267
     43 C         -14.5518   -5.5225    1.0549 C.ar    1  LIG1       -0.0115
     44 C         -13.0646   -3.7847    0.2545 C.ar    1  LIG1        0.0456
     45 C         -14.1102   -6.3920    0.0579 C.ar    1  LIG1       -0.0097
     46 H         -15.3088   -5.8612    1.7549 H       1  LIG1        0.0660
     47 C         -12.6308   -4.6773   -0.7297 C.ar    1  LIG1       -0.0454
     48 C         -13.1339   -5.9697   -0.8567 C.ar    1  LIG1       -0.0418
     49 H         -11.8678   -4.3243   -1.4125 H       1  LIG1        0.0628
     50 O         -14.4293   -3.3973    2.1684 O.3     1  LIG1       -0.5061
     51 H         -15.0168   -3.8483    2.7852 H       1  LIG1        0.2922
     52 C         -12.6390   -6.8814   -1.9658 C.3     1  LIG1       -0.0391
     53 H         -12.1564   -6.2901   -2.7429 H       1  LIG1        0.0278
     54 H         -13.4686   -7.4397   -2.4006 H       1  LIG1        0.0278
     55 H         -11.9147   -7.6011   -1.5808 H       1  LIG1        0.0278
     56 C         -16.0734   -7.9014   -0.3668 C.ar    1  LIG1        0.0330
     57 C         -16.6295   -9.1846   -0.4105 C.ar    1  LIG1       -0.0315
     58 C         -14.7179   -7.7576   -0.0142 C.ar    1  LIG1        0.0043
     59 C         -15.8743  -10.3155   -0.1254 C.ar    1  LIG1        0.0028
     60 H         -17.6717   -9.3034   -0.6796 H       1  LIG1        0.0643
     61 C         -13.9636   -8.8899    0.2634 C.ar    1  LIG1       -0.0363
     62 C         -14.5163  -10.1722    0.2118 C.ar    1  LIG1        0.0332
     63 H         -12.9210   -8.7782    0.5330 H       1  LIG1        0.0637
     64 N         -16.8591   -6.7865   -0.6211 N.pl3   1  LIG1       -0.3575
     65 H         -16.3554   -5.9518   -0.8900 H       1  LIG1        0.1423
     66 H         -17.6881   -6.9564   -1.1715 H       1  LIG1        0.1423
     67 C         -13.6690  -11.3083    0.4857 C.1     1  LIG1       -0.0690
     68 C         -12.9416  -12.2375    0.7164 C.1     1  LIG1       -0.1139
     69 H         -12.3066  -13.0686    0.9175 H       1  LIG1        0.1232
     70 C         -17.2778  -12.0807   -1.2558 C.ar    1  LIG1        0.1253
     71 C         -17.8741  -13.3384   -1.2628 C.ar    1  LIG1       -0.0077
     72 C         -16.5251  -11.6587   -0.1513 C.ar    1  LIG1        0.0260
     73 C         -17.7530  -14.1936   -0.1707 C.ar    1  LIG1        0.0361
     74 H         -18.4204  -13.6730   -2.1374 H       1  LIG1        0.0662
     75 C         -16.4088  -12.5222    0.9335 C.ar    1  LIG1       -0.0344
     76 C         -17.0148  -13.7810    0.9491 C.ar    1  LIG1        0.0361
     77 H         -15.8404  -12.2085    1.7988 H       1  LIG1        0.0637
     78 O         -17.3907  -11.2376   -2.3158 O.3     1  LIG1       -0.5061
     79 H         -17.8511  -11.6696   -3.0432 H       1  LIG1        0.2922
     80 C         -16.8969  -14.5934    2.1364 C.1     1  LIG1       -0.0689
     81 C         -16.7897  -15.2292    3.1501 C.1     1  LIG1       -0.1139
     82 H         -16.6999  -15.7999    4.0448 H       1  LIG1        0.1232
     83 C         -18.4406  -15.4963   -0.2266 C.ar    1  LIG1        0.1373
     84 C         -19.6635  -15.8473   -0.7036 C.ar    1  LIG1       -0.0004
     85 C         -19.7729  -17.2700   -0.5013 C.ar    1  LIG1        0.0629
     86 C         -18.6018  -17.6484    0.0809 C.ar    1  LIG1        0.1079
     87 O         -17.7995  -16.5895    0.2451 O.2     1  LIG1       -0.4616
     88 H         -18.2317  -18.6028    0.4105 H       1  LIG1        0.1042
     89 H         -20.4131  -15.1942   -1.1159 H       1  LIG1        0.0668
     90 C         -20.8792  -18.1200   -0.8310 C.1     1  LIG1       -0.0665
     91 C         -21.8117  -18.8236   -1.1105 C.1     1  LIG1       -0.1138
     92 H         -22.6391  -19.4472   -1.3576 H       1  LIG1        0.1232
@<TRIPOS>BOND
     1    79    78    1
     2    53    52    1
     3     9    10    3
     4    54    52    1
     5    78    70    1
     6    74    71    1
     7    52    55    1
     8    52    48    1
     9    10     1    1
    10    49    47    1
    11    92    91    1
    12     8     2    1
    13     1     2   ar
    14     1     6   ar
    15    71    70   ar
    16    71    73   ar
    17    70    72   ar
    18    66    64    1
    19    89    84    1
    20    91    90    3
    21     2     3   ar
    22     6     5   ar
    23    31    29    1
    24    65    64    1
    25    48    47   ar
    26    48    45   ar
    27    90    85    1
    28    47    44   ar
    29    84    85   ar
    30    84    83   ar
    31    27    28    3
    32    60    57    1
    33    30    29    1
    34    64    56    1
    35    85    86   ar
    36    28    23    1
    37     5    12    1
    38     5     4   ar
    39     3     7    1
    40     3     4   ar
    41    57    56   ar
    42    57    59   ar
    43    39    32    1
    44    56    58   ar
    45    29    24    1
    46    16    12   ar
    47    16    15   ar
    48    23    24   ar
    49    23    22   ar
    50    83    73    1
    51    83    87   ar
    52    24    25   ar
    53    73    76   ar
    54    72    59    1
    55    72    75   ar
    56    32    37   ar
    57    32    33   ar
    58    59    62   ar
    59    12    13   ar
    60     4    11    1
    61    22    15    1
    62    22    26   ar
    63    37    36   ar
    64    25    26   ar
    65    25    33    1
    66    58    45    1
    67    58    61   ar
    68    15    14   ar
    69    45    43   ar
    70    86    87   ar
    71    86    88    1
    72    33    34   ar
    73    62    61   ar
    74    62    67    1
    75    44    36    1
    76    44    42   ar
    77    61    63    1
    78    36    35   ar
    79    13    14   ar
    80    13    18    1
    81    14    19    1
    82    34    35   ar
    83    34    38    1
    84    67    68    3
    85    35    40    1
    86    21    19    1
    87    18    17    3
    88    68    69    1
    89    40    41    1
    90    75    76   ar
    91    75    77    1
    92    19    20    1
    93    76    80    1
    94    43    42   ar
    95    43    46    1
    96    42    50    1
    97    80    81    3
    98    50    51    1
    99    81    82    1
