@<TRIPOS>MOLECULE
mol_data/opt/m06hf/geoms/mol2/6da6da6da6da.out
 42 45 0 0 0
SMALL
GASTEIGER

@<TRIPOS>ATOM
      1 C          -3.6419   -1.6726   -1.1177 C.ar    1  LIG1        0.1407
      2 C          -3.0183   -2.2436   -0.0094 C.ar    1  LIG1       -0.0257
      3 C          -3.2168   -1.6367    1.2249 C.ar    1  LIG1       -0.0570
      4 C          -4.0157   -0.5019    1.2947 C.ar    1  LIG1       -0.0355
      5 C          -4.5880   -0.0152    0.1163 C.ar    1  LIG1        0.0752
      6 N          -4.4065   -0.5884   -1.0691 N.ar    1  LIG1       -0.2363
      7 H          -2.7642   -2.0468    2.1174 H       1  LIG1        0.0619
      8 H          -2.4112   -3.1299   -0.1265 H       1  LIG1        0.0646
      9 N          -3.2601   -2.7734   -3.4473 N.1     1  LIG1       -0.1893
     10 C          -3.4476   -2.2766   -2.4319 C.1     1  LIG1        0.1191
     11 H          -4.2165   -0.0117    2.2378 H       1  LIG1        0.0639
     12 C          -6.7287    1.2008   -0.4376 C.ar    1  LIG1        0.1498
     13 C          -5.4482    1.2045    0.1312 C.ar    1  LIG1        0.0363
     14 C          -5.0103    2.3962    0.7018 C.ar    1  LIG1       -0.0478
     15 C          -5.8353    3.5130    0.6697 C.ar    1  LIG1       -0.0349
     16 C          -7.0887    3.3932    0.0678 C.ar    1  LIG1        0.0752
     17 N          -7.5281    2.2581   -0.4676 N.ar    1  LIG1       -0.2356
     18 H          -4.0265    2.4476    1.1511 H       1  LIG1        0.0626
     19 N          -7.7142   -0.9891   -1.4471 N.1     1  LIG1       -0.1893
     20 C          -7.2740   -0.0239   -1.0147 C.1     1  LIG1        0.1198
     21 H          -5.5306    4.4521    1.1112 H       1  LIG1        0.0639
     22 C          -9.3166    4.4807    0.5235 C.ar    1  LIG1        0.1498
     23 C          -8.0201    4.5578   -0.0003 C.ar    1  LIG1        0.0363
     24 C          -7.6410    5.7615   -0.5874 C.ar    1  LIG1       -0.0478
     25 C          -8.5536    6.8066   -0.6463 C.ar    1  LIG1       -0.0349
     26 C          -9.8238    6.6124   -0.1010 C.ar    1  LIG1        0.0752
     27 N         -10.1933    5.4736    0.4799 N.ar    1  LIG1       -0.2356
     28 H          -6.6475    5.8678   -1.0049 H       1  LIG1        0.0626
     29 N         -10.0737    2.3048    1.7394 N.1     1  LIG1       -0.1893
     30 C          -9.7545    3.2613    1.1951 C.1     1  LIG1        0.1198
     31 H          -8.2912    7.7584   -1.0879 H       1  LIG1        0.0639
     32 C         -11.4992    8.1258    1.0192 C.ar    1  LIG1        0.1491
     33 C         -10.8490    7.6954   -0.1427 C.ar    1  LIG1        0.0362
     34 C         -11.2084    8.3123   -1.3388 C.ar    1  LIG1       -0.0484
     35 C         -12.1894    9.2946   -1.3266 C.ar    1  LIG1       -0.0429
     36 C         -12.7769    9.6327   -0.1088 C.ar    1  LIG1        0.0291
     37 N         -12.4351    9.0671    1.0445 N.ar    1  LIG1       -0.2440
     38 H         -10.7391    8.0034   -2.2649 H       1  LIG1        0.0625
     39 H         -13.5502   10.3885   -0.0569 H       1  LIG1        0.0830
     40 N         -10.7972    7.1596    3.3357 N.1     1  LIG1       -0.1893
     41 C         -11.1209    7.5675    2.3150 C.1     1  LIG1        0.1198
     42 H         -12.5019    9.7850   -2.2375 H       1  LIG1        0.0633
@<TRIPOS>BOND
     1     9    10    3
     2    10     1    1
     3    38    34    1
     4    42    35    1
     5    19    20    3
     6    34    35   ar
     7    34    33   ar
     8    35    36   ar
     9     1     6   ar
    10     1     2   ar
    11    31    25    1
    12     6     5   ar
    13    20    12    1
    14    28    24    1
    15    25    24   ar
    16    25    26   ar
    17    24    23   ar
    18    17    12   ar
    19    17    16   ar
    20    12    13   ar
    21    33    26    1
    22    33    32   ar
    23     8     2    1
    24    36    39    1
    25    36    37   ar
    26    26    27   ar
    27     2     3   ar
    28    23    16    1
    29    23    22   ar
    30    16    15   ar
    31     5    13    1
    32     5     4   ar
    33    13    14   ar
    34    27    22   ar
    35    22    30    1
    36    15    14   ar
    37    15    21    1
    38    14    18    1
    39    32    37   ar
    40    32    41    1
    41    30    29    3
    42     3     4   ar
    43     3     7    1
    44     4    11    1
    45    41    40    3
