@<TRIPOS>MOLECULE
mol_data/opt/m06hf/geoms/mol2/6da6da-6da.out
 32 34 0 0 0
SMALL
GASTEIGER

@<TRIPOS>ATOM
      1 C          -4.4586   -2.1336    0.0001 C.ar    1  LIG1        0.1407
      2 C          -3.0703   -2.2515   -0.0003 C.ar    1  LIG1       -0.0257
      3 C          -2.3424   -1.0702   -0.0006 C.ar    1  LIG1       -0.0570
      4 C          -3.0089    0.1506   -0.0006 C.ar    1  LIG1       -0.0355
      5 C          -4.4090    0.1567   -0.0003 C.ar    1  LIG1        0.0752
      6 N          -5.1066   -0.9793    0.0001 N.ar    1  LIG1       -0.2363
      7 H          -1.2610   -1.0914   -0.0010 H       1  LIG1        0.0619
      8 H          -2.6041   -3.2262   -0.0003 H       1  LIG1        0.0646
      9 N          -5.8959   -4.3072    0.0009 N.1     1  LIG1       -0.1893
     10 C          -5.2808   -3.3403    0.0005 C.1     1  LIG1        0.1191
     11 H          -2.4382    1.0647   -0.0010 H       1  LIG1        0.0639
     12 C          -4.8362    2.7225   -0.0001 C.ar    1  LIG1        0.1498
     13 C          -5.2685    1.3901   -0.0002 C.ar    1  LIG1        0.0363
     14 C          -6.6569    1.2237   -0.0003 C.ar    1  LIG1       -0.0478
     15 C          -7.5141    2.3110   -0.0003 C.ar    1  LIG1       -0.0349
     16 C          -6.9682    3.6007   -0.0002 C.ar    1  LIG1        0.0752
     17 N          -5.6498    3.7707   -0.0001 N.ar    1  LIG1       -0.2356
     18 H          -7.0517    0.2174   -0.0003 H       1  LIG1        0.0626
     19 N          -2.3339    3.4576    0.0002 N.1     1  LIG1       -0.1893
     20 C          -3.4289    3.1153    0.0001 C.1     1  LIG1        0.1198
     21 H          -8.5778    2.1405   -0.0003 H       1  LIG1        0.0639
     22 C          -9.1441    5.0176   -0.0003 C.ar    1  LIG1        0.1491
     23 C          -7.7486    4.8859   -0.0001 C.ar    1  LIG1        0.0362
     24 C          -7.0262    6.0865    0.0000 C.ar    1  LIG1       -0.0484
     25 C          -7.6887    7.3014    0.0001 C.ar    1  LIG1       -0.0429
     26 C          -9.0832    7.2999   -0.0001 C.ar    1  LIG1        0.0291
     27 N          -9.7927    6.1816   -0.0003 N.ar    1  LIG1       -0.2440
     28 H          -5.9466    6.0355    0.0001 H       1  LIG1        0.0625
     29 H          -9.6470    8.2241   -0.0001 H       1  LIG1        0.0830
     30 N         -10.7971    3.0006   -0.0006 N.1     1  LIG1       -0.1893
     31 C         -10.0567    3.8767   -0.0005 C.1     1  LIG1        0.1198
     32 H          -7.1412    8.2330    0.0002 H       1  LIG1        0.0633
@<TRIPOS>BOND
     1    11     4    1
     2     7     3    1
     3     3     4   ar
     4     3     2   ar
     5     4     5   ar
     6    30    31    3
     7    31    22    1
     8    18    14    1
     9    21    15    1
    10    22    27   ar
    11    22    23   ar
    12     2     8    1
    13     2     1   ar
    14    14    15   ar
    15    14    13   ar
    16    27    26   ar
    17     5    13    1
    18     5     6   ar
    19    15    16   ar
    20    13    12   ar
    21    16    23    1
    22    16    17   ar
    23    23    24   ar
    24    12    17   ar
    25    12    20    1
    26    26    29    1
    27    26    25   ar
    28    24    25   ar
    29    24    28    1
    30    25    32    1
    31    20    19    3
    32     1     6   ar
    33     1    10    1
    34    10     9    3
