@<TRIPOS>MOLECULE
mol_data/opt/m06hf/geoms/mol2/6da6da-6da-6da-.out
 42 45 0 0 0
SMALL
GASTEIGER

@<TRIPOS>ATOM
      1 C          -4.5794   -2.2676    0.0036 C.ar    1  LIG1        0.1407
      2 C          -3.2001   -2.4646   -0.0001 C.ar    1  LIG1       -0.0257
      3 C          -2.4056   -1.3271   -0.0046 C.ar    1  LIG1       -0.0570
      4 C          -3.0002   -0.0695   -0.0052 C.ar    1  LIG1       -0.0355
      5 C          -4.3972    0.0168   -0.0013 C.ar    1  LIG1        0.0752
      6 N          -5.1594   -1.0775    0.0030 N.ar    1  LIG1       -0.2363
      7 H          -1.3274   -1.4101   -0.0076 H       1  LIG1        0.0619
      8 H          -2.7895   -3.4640    0.0007 H       1  LIG1        0.0646
      9 N          -6.1476   -4.3486    0.0128 N.1     1  LIG1       -0.1893
     10 C          -5.4718   -3.4232    0.0087 C.1     1  LIG1        0.1191
     11 H          -2.3783    0.8104   -0.0087 H       1  LIG1        0.0639
     12 C          -4.6834    2.6028   -0.0044 C.ar    1  LIG1        0.1498
     13 C          -5.1872    1.2965   -0.0014 C.ar    1  LIG1        0.0363
     14 C          -6.5850    1.1977    0.0021 C.ar    1  LIG1       -0.0478
     15 C          -7.3796    2.3278    0.0024 C.ar    1  LIG1       -0.0349
     16 C          -6.7625    3.5863   -0.0010 C.ar    1  LIG1        0.0752
     17 N          -5.4442    3.6909   -0.0043 N.ar    1  LIG1       -0.2356
     18 H          -7.0222    0.2087    0.0047 H       1  LIG1        0.0626
     19 N          -2.1377    3.1643   -0.0104 N.1     1  LIG1       -0.1893
     20 C          -3.2566    2.9136   -0.0079 C.1     1  LIG1        0.1198
     21 H          -8.4530    2.2161    0.0054 H       1  LIG1        0.0639
     22 C          -6.9132    6.1323   -0.0036 C.ar    1  LIG1        0.1498
     23 C          -7.5282    4.8686   -0.0008 C.ar    1  LIG1        0.0363
     24 C          -8.9256    4.8789    0.0024 C.ar    1  LIG1       -0.0478
     25 C          -9.6345    6.0666    0.0030 C.ar    1  LIG1       -0.0349
     26 C          -8.9203    7.2705    0.0001 C.ar    1  LIG1        0.0752
     27 N          -7.5968    7.2699   -0.0032 N.ar    1  LIG1       -0.2356
     28 H          -9.4794    3.9509    0.0048 H       1  LIG1        0.0626
     29 N          -4.3621    6.6490   -0.0103 N.1     1  LIG1       -0.1893
     30 C          -5.4690    6.3531   -0.0073 C.1     1  LIG1        0.1198
     31 H         -10.7131    6.0380    0.0065 H       1  LIG1        0.0639
     32 C          -8.8622    9.8183    0.0107 C.ar    1  LIG1        0.1491
     33 C          -9.5834    8.6102    0.0003 C.ar    1  LIG1        0.0362
     34 C         -10.9758    8.7241   -0.0101 C.ar    1  LIG1       -0.0484
     35 C         -11.5795    9.9709   -0.0102 C.ar    1  LIG1       -0.0429
     36 C         -10.7619   11.0973    0.0003 C.ar    1  LIG1        0.0291
     37 N          -9.4383   11.0192    0.0106 N.ar    1  LIG1       -0.2440
     38 H         -11.5993    7.8417   -0.0192 H       1  LIG1        0.0625
     39 H         -11.1814   12.0955    0.0005 H       1  LIG1        0.0830
     40 N          -6.2767   10.1208    0.0363 N.1     1  LIG1       -0.1893
     41 C          -7.4030    9.9076    0.0246 C.1     1  LIG1        0.1198
     42 H         -12.6554   10.0699   -0.0185 H       1  LIG1        0.0633
@<TRIPOS>BOND
     1    38    34    1
     2    42    35    1
     3    19    20    3
     4    29    30    3
     5    35    34   ar
     6    35    36   ar
     7    34    33   ar
     8    11     4    1
     9    20    12    1
    10     7     3    1
    11    30    22    1
    12     4     3   ar
    13     4     5   ar
    14     3     2   ar
    15    12    17   ar
    16    12    13   ar
    17    17    16   ar
    18    22    27   ar
    19    22    23   ar
    20    27    26   ar
    21    13     5    1
    22    13    14   ar
    23     5     6   ar
    24    16    23    1
    25    16    15   ar
    26    23    24   ar
    27     2     8    1
    28     2     1   ar
    29    26    33    1
    30    26    25   ar
    31    33    32   ar
    32    36    39    1
    33    36    37   ar
    34    14    15   ar
    35    14    18    1
    36    24    25   ar
    37    24    28    1
    38    15    21    1
    39    25    31    1
    40     6     1   ar
    41     1    10    1
    42    10     9    3
    43    37    32   ar
    44    32    41    1
    45    41    40    3
