@<TRIPOS>MOLECULE
mol_data/opt/m06hf/geoms/mol2/6da6da.out
 22 23 0 0 0
SMALL
GASTEIGER

@<TRIPOS>ATOM
      1 C          -4.4221   -2.0060   -0.4586 C.ar    1  LIG1        0.1407
      2 C          -3.1249   -2.0815    0.0459 C.ar    1  LIG1       -0.0257
      3 C          -2.5691   -0.9191    0.5671 C.ar    1  LIG1       -0.0570
      4 C          -3.3239    0.2470    0.5595 C.ar    1  LIG1       -0.0355
      5 C          -4.6143    0.2075    0.0229 C.ar    1  LIG1        0.0752
      6 N          -5.1554   -0.8995   -0.4774 N.ar    1  LIG1       -0.2363
      7 H          -1.5692   -0.9259    0.9792 H       1  LIG1        0.0619
      8 H          -2.5887   -3.0195    0.0264 H       1  LIG1        0.0646
      9 N          -5.4641   -4.1724   -1.4619 N.1     1  LIG1       -0.1893
     10 C          -5.0308   -3.2069   -1.0216 C.1     1  LIG1        0.1191
     11 H          -2.9402    1.1678    0.9774 H       1  LIG1        0.0639
     12 C          -6.7832    1.4373    0.4288 C.ar    1  LIG1        0.1491
     13 C          -5.4578    1.4379   -0.0204 C.ar    1  LIG1        0.0362
     14 C          -4.9572    2.6392   -0.5192 C.ar    1  LIG1       -0.0484
     15 C          -5.7817    3.7553   -0.5597 C.ar    1  LIG1       -0.0429
     16 C          -7.0893    3.6322   -0.0941 C.ar    1  LIG1        0.0291
     17 N          -7.5807    2.4992    0.3968 N.ar    1  LIG1       -0.2440
     18 H          -3.9413    2.6839   -0.8913 H       1  LIG1        0.0625
     19 H          -7.7680    4.4753   -0.1141 H       1  LIG1        0.0830
     20 N          -7.8147   -0.6860    1.5332 N.1     1  LIG1       -0.1893
     21 C          -7.3597    0.2358    1.0267 C.1     1  LIG1        0.1198
     22 H          -5.4282    4.6992   -0.9503 H       1  LIG1        0.0633
@<TRIPOS>BOND
     1     9    10    3
     2    10     1    1
     3    22    15    1
     4    18    14    1
     5    15    14   ar
     6    15    16   ar
     7    14    13   ar
     8     6     1   ar
     9     6     5   ar
    10     1     2   ar
    11    19    16    1
    12    16    17   ar
    13    13     5    1
    14    13    12   ar
    15     5     4   ar
    16     8     2    1
    17     2     3   ar
    18    17    12   ar
    19    12    21    1
    20     4     3   ar
    21     4    11    1
    22     3     7    1
    23    21    20    3
