@<TRIPOS>MOLECULE
mol_data/opt/m06hf/geoms/mol2/6da6da-.out
 22 23 0 0 0
SMALL
GASTEIGER

@<TRIPOS>ATOM
      1 C          -4.5615   -2.0448    0.0001 C.ar    1  LIG1        0.1407
      2 C          -3.1747   -2.1697   -0.0001 C.ar    1  LIG1       -0.0257
      3 C          -2.4417   -0.9912   -0.0004 C.ar    1  LIG1       -0.0570
      4 C          -3.1023    0.2324   -0.0005 C.ar    1  LIG1       -0.0355
      5 C          -4.5027    0.2471   -0.0002 C.ar    1  LIG1        0.0752
      6 N          -5.2041   -0.8869    0.0000 N.ar    1  LIG1       -0.2363
      7 H          -1.3605   -1.0185   -0.0005 H       1  LIG1        0.0619
      8 H          -2.7112   -3.1458   -0.0000 H       1  LIG1        0.0646
      9 N          -6.0152   -4.2080    0.0007 N.1     1  LIG1       -0.1893
     10 C          -5.3913   -3.2467    0.0004 C.1     1  LIG1        0.1191
     11 H          -2.5267    1.1434   -0.0007 H       1  LIG1        0.0639
     12 C          -4.9193    2.8146   -0.0002 C.ar    1  LIG1        0.1491
     13 C          -5.3598    1.4847   -0.0003 C.ar    1  LIG1        0.0362
     14 C          -6.7500    1.3067   -0.0005 C.ar    1  LIG1       -0.0484
     15 C          -7.5952    2.4015   -0.0006 C.ar    1  LIG1       -0.0429
     16 C          -7.0333    3.6780   -0.0005 C.ar    1  LIG1        0.0291
     17 N          -5.7240    3.8774   -0.0003 N.ar    1  LIG1       -0.2440
     18 H          -7.1325    0.2957   -0.0006 H       1  LIG1        0.0625
     19 H          -7.6526    4.5658   -0.0005 H       1  LIG1        0.0830
     20 N          -2.4068    3.5139    0.0003 N.1     1  LIG1       -0.1893
     21 C          -3.5074    3.1910    0.0001 C.1     1  LIG1        0.1198
     22 H          -8.6688    2.2755   -0.0007 H       1  LIG1        0.0633
@<TRIPOS>BOND
     1    22    15    1
     2    11     4    1
     3    18    14    1
     4    15    14   ar
     5    15    16   ar
     6     7     3    1
     7    19    16    1
     8    14    13   ar
     9     4     3   ar
    10     4     5   ar
    11    16    17   ar
    12     3     2   ar
    13    13     5    1
    14    13    12   ar
    15    17    12   ar
    16     5     6   ar
    17    12    21    1
    18     2     8    1
    19     2     1   ar
    20     6     1   ar
    21    21    20    3
    22     1    10    1
    23    10     9    3
