@<TRIPOS>MOLECULE
mol_data/opt/m06hf/geoms/mol2/6da6da-6da6da-.out
 42 45 0 0 0
SMALL
GASTEIGER

@<TRIPOS>ATOM
      1 C          -4.4317   -2.2488   -0.0002 C.ar    1  LIG1        0.1407
      2 C          -3.0439   -2.3762   -0.0005 C.ar    1  LIG1       -0.0257
      3 C          -2.3072   -1.2005   -0.0007 C.ar    1  LIG1       -0.0570
      4 C          -2.9648    0.0253   -0.0006 C.ar    1  LIG1       -0.0355
      5 C          -4.3642    0.0411   -0.0003 C.ar    1  LIG1        0.0752
      6 N          -5.0708   -1.0895   -0.0002 N.ar    1  LIG1       -0.2363
      7 H          -1.2262   -1.2297   -0.0010 H       1  LIG1        0.0619
      8 H          -2.5841   -3.3540   -0.0006 H       1  LIG1        0.0646
      9 N          -5.8844   -4.4118    0.0001 N.1     1  LIG1       -0.1893
     10 C          -5.2625   -3.4494   -0.0000 C.1     1  LIG1        0.1191
     11 H          -2.3873    0.9351   -0.0008 H       1  LIG1        0.0639
     12 C          -4.7743    2.6095   -0.0001 C.ar    1  LIG1        0.1498
     13 C          -5.2161    1.2801   -0.0002 C.ar    1  LIG1        0.0363
     14 C          -6.6053    1.1203   -0.0002 C.ar    1  LIG1       -0.0478
     15 C          -7.4563    2.2128   -0.0000 C.ar    1  LIG1       -0.0349
     16 C          -6.9004    3.4978    0.0000 C.ar    1  LIG1        0.0752
     17 N          -5.5815    3.6625    0.0000 N.ar    1  LIG1       -0.2356
     18 H          -7.0018    0.1144   -0.0002 H       1  LIG1        0.0626
     19 N          -2.2659    3.3215   -0.0000 N.1     1  LIG1       -0.1893
     20 C          -3.3643    2.9913   -0.0001 C.1     1  LIG1        0.1198
     21 H          -8.5217    2.0510   -0.0000 H       1  LIG1        0.0639
     22 C          -9.0642    4.9323    0.0002 C.ar    1  LIG1        0.1498
     23 C          -7.6707    4.7862    0.0002 C.ar    1  LIG1        0.0363
     24 C          -6.9517    5.9856    0.0003 C.ar    1  LIG1       -0.0478
     25 C          -7.5963    7.2115    0.0004 C.ar    1  LIG1       -0.0349
     26 C          -8.9963    7.2369    0.0004 C.ar    1  LIG1        0.0752
     27 N          -9.6893    6.1018    0.0003 N.ar    1  LIG1       -0.2356
     28 H          -5.8717    5.9336    0.0003 H       1  LIG1        0.0626
     29 N         -10.7516    2.9444    0.0000 N.1     1  LIG1       -0.1893
     30 C          -9.9940    3.8053    0.0001 C.1     1  LIG1        0.1198
     31 H          -7.0084    8.1147    0.0005 H       1  LIG1        0.0639
     32 C          -9.4137    9.8000    0.0006 C.ar    1  LIG1        0.1491
     33 C          -9.8556    8.4706    0.0005 C.ar    1  LIG1        0.0362
     34 C         -11.2454    8.2916    0.0005 C.ar    1  LIG1       -0.0484
     35 C         -12.0908    9.3865    0.0006 C.ar    1  LIG1       -0.0429
     36 C         -11.5280   10.6627    0.0007 C.ar    1  LIG1        0.0291
     37 N         -10.2185   10.8624    0.0007 N.ar    1  LIG1       -0.2440
     38 H         -11.6282    7.2805    0.0005 H       1  LIG1        0.0625
     39 H         -12.1478   11.5503    0.0008 H       1  LIG1        0.0830
     40 N          -6.8996   10.4925    0.0006 N.1     1  LIG1       -0.1893
     41 C          -8.0012   10.1726    0.0006 C.1     1  LIG1        0.1198
     42 H         -13.1641    9.2610    0.0007 H       1  LIG1        0.0633
@<TRIPOS>BOND
     1     7     3    1
     2    11     4    1
     3     3     4   ar
     4     3     2   ar
     5     4     5   ar
     6     8     2    1
     7     2     1   ar
     8     5    13    1
     9     5     6   ar
    10     1     6   ar
    11     1    10    1
    12    18    14    1
    13    13    14   ar
    14    13    12   ar
    15    14    15   ar
    16    12    20    1
    17    12    17   ar
    18    20    19    3
    19    15    21    1
    20    15    16   ar
    21    10     9    3
    22    29    30    3
    23    17    16   ar
    24    16    23    1
    25    30    22    1
    26    23    22   ar
    27    23    24   ar
    28    22    27   ar
    29    28    24    1
    30    24    25   ar
    31    27    26   ar
    32    25    26   ar
    33    25    31    1
    34    26    33    1
    35    38    34    1
    36    33    34   ar
    37    33    32   ar
    38    34    35   ar
    39    40    41    3
    40    41    32    1
    41    32    37   ar
    42    35    42    1
    43    35    36   ar
    44    37    36   ar
    45    36    39    1
