@<TRIPOS>MOLECULE
mol_data/opt/m06hf/geoms/mol2/6da6da6da-6da.out
 42 45 0 0 0
SMALL
GASTEIGER

@<TRIPOS>ATOM
      1 C          -4.3195   -2.1509   -0.5599 C.ar    1  LIG1        0.1407
      2 C          -3.0380   -2.2765   -0.0251 C.ar    1  LIG1       -0.0257
      3 C          -2.4742   -1.1522    0.5661 C.ar    1  LIG1       -0.0570
      4 C          -3.2055    0.0288    0.5963 C.ar    1  LIG1       -0.0355
      5 C          -4.4818    0.0390    0.0264 C.ar    1  LIG1        0.0752
      6 N          -5.0304   -1.0302   -0.5420 N.ar    1  LIG1       -0.2363
      7 H          -1.4857   -1.1986    1.0027 H       1  LIG1        0.0619
      8 H          -2.5205   -3.2236   -0.0777 H       1  LIG1        0.0646
      9 N          -5.3722   -4.2342   -1.7156 N.1     1  LIG1       -0.1893
     10 C          -4.9343   -3.3067   -1.2045 C.1     1  LIG1        0.1191
     11 H          -2.8138    0.9204    1.0670 H       1  LIG1        0.0639
     12 C          -6.6548    1.2777    0.3888 C.ar    1  LIG1        0.1498
     13 C          -5.3040    1.2835    0.0177 C.ar    1  LIG1        0.0363
     14 C          -4.7709    2.5040   -0.3871 C.ar    1  LIG1       -0.0478
     15 C          -5.5702    3.6388   -0.4056 C.ar    1  LIG1       -0.0349
     16 C          -6.9012    3.5210    0.0032 C.ar    1  LIG1        0.0752
     17 N          -7.4247    2.3562    0.3820 N.ar    1  LIG1       -0.2356
     18 H          -3.7410    2.5588   -0.7166 H       1  LIG1        0.0626
     19 N          -7.8122   -0.8837    1.2696 N.1     1  LIG1       -0.1893
     20 C          -7.2960    0.0548    0.8627 C.1     1  LIG1        0.1198
     21 H          -5.1692    4.5829   -0.7436 H       1  LIG1        0.0639
     22 C          -7.5281    5.9980    0.2358 C.ar    1  LIG1        0.1498
     23 C          -7.8667    4.6616    0.0010 C.ar    1  LIG1        0.0363
     24 C          -9.2182    4.4013   -0.2384 C.ar    1  LIG1       -0.0478
     25 C         -10.1345    5.4392   -0.2608 C.ar    1  LIG1       -0.0349
     26 C          -9.6794    6.7409   -0.0168 C.ar    1  LIG1        0.0752
     27 N          -8.3979    7.0013    0.2230 N.ar    1  LIG1       -0.2356
     28 H          -9.5275    3.3783   -0.4078 H       1  LIG1        0.0626
     29 N          -5.0817    6.7062    0.7953 N.1     1  LIG1       -0.1893
     30 C          -6.1588    6.3954    0.5539 C.1     1  LIG1        0.1198
     31 H         -11.1760    5.2427   -0.4688 H       1  LIG1        0.0639
     32 C         -11.9083    7.9627    0.3321 C.ar    1  LIG1        0.1491
     33 C         -10.5628    7.9464   -0.0511 C.ar    1  LIG1        0.0362
     34 C         -10.0187    9.1630   -0.4726 C.ar    1  LIG1       -0.0484
     35 C         -10.8202   10.2912   -0.5225 C.ar    1  LIG1       -0.0429
     36 C         -12.1566   10.1779   -0.1370 C.ar    1  LIG1        0.0291
     37 N         -12.6880    9.0406    0.2908 N.ar    1  LIG1       -0.2440
     38 H          -8.9733    9.1960   -0.7483 H       1  LIG1        0.0625
     39 H         -12.8208   11.0325   -0.1666 H       1  LIG1        0.0830
     40 N         -13.0793    5.8238    1.2555 N.1     1  LIG1       -0.1893
     41 C         -12.5638    6.7661    0.8540 C.1     1  LIG1        0.1198
     42 H         -10.4256   11.2420   -0.8520 H       1  LIG1        0.0633
@<TRIPOS>BOND
     1     9    10    3
     2    10     1    1
     3    42    35    1
     4    38    34    1
     5    21    15    1
     6    18    14    1
     7     1     6   ar
     8     1     2   ar
     9     6     5   ar
    10    35    34   ar
    11    35    36   ar
    12    34    33   ar
    13    31    25    1
    14    28    24    1
    15    15    14   ar
    16    15    16   ar
    17    14    13   ar
    18    25    24   ar
    19    25    26   ar
    20    24    23   ar
    21    39    36    1
    22    36    37   ar
    23     8     2    1
    24    33    26    1
    25    33    32   ar
    26     2     3   ar
    27    26    27   ar
    28    23    16    1
    29    23    22   ar
    30    16    17   ar
    31    13     5    1
    32    13    12   ar
    33     5     4   ar
    34    27    22   ar
    35    22    30    1
    36    37    32   ar
    37    32    41    1
    38    17    12   ar
    39    12    20    1
    40    30    29    3
    41     3     4   ar
    42     3     7    1
    43     4    11    1
    44    41    40    3
    45    20    19    3
