@<TRIPOS>MOLECULE
mol_data/opt/m06hf/geoms/mol2/6da6da6da6da-.out
 42 45 0 0 0
SMALL
GASTEIGER

@<TRIPOS>ATOM
      1 C          -4.0351   -1.9698   -0.9022 C.ar    1  LIG1        0.1407
      2 C          -3.0320   -2.2607    0.0210 C.ar    1  LIG1       -0.0257
      3 C          -2.7967   -1.3341    1.0294 C.ar    1  LIG1       -0.0570
      4 C          -3.5615   -0.1746    1.0677 C.ar    1  LIG1       -0.0355
      5 C          -4.5385    0.0133    0.0867 C.ar    1  LIG1        0.0752
      6 N          -4.7732   -0.8667   -0.8815 N.ar    1  LIG1       -0.2363
      7 H          -2.0373   -1.5172    1.7775 H       1  LIG1        0.0619
      8 H          -2.4724   -3.1816   -0.0600 H       1  LIG1        0.0646
      9 N          -4.4690   -3.6796   -2.8189 N.1     1  LIG1       -0.1893
     10 C          -4.3019   -2.9159   -1.9811 C.1     1  LIG1        0.1191
     11 H          -3.4285    0.5616    1.8489 H       1  LIG1        0.0639
     12 C          -6.7802    1.1715   -0.0071 C.ar    1  LIG1        0.1498
     13 C          -5.3833    1.2439    0.0765 C.ar    1  LIG1        0.0363
     14 C          -4.8170    2.5142    0.1425 C.ar    1  LIG1       -0.0478
     15 C          -5.6385    3.6328    0.1101 C.ar    1  LIG1       -0.0349
     16 C          -7.0175    3.4399    0.0117 C.ar    1  LIG1        0.0752
     17 N          -7.5737    2.2331   -0.0387 N.ar    1  LIG1       -0.2356
     18 H          -3.7414    2.6210    0.2045 H       1  LIG1        0.0626
     19 N          -7.9924   -1.1338   -0.0147 N.1     1  LIG1       -0.1893
     20 C          -7.4543   -0.1226   -0.0271 C.1     1  LIG1        0.1198
     21 H          -5.2292    4.6321    0.1729 H       1  LIG1        0.0639
     22 C          -9.0991    4.6586    0.7555 C.ar    1  LIG1        0.1498
     23 C          -7.9522    4.5994   -0.0451 C.ar    1  LIG1        0.0363
     24 C          -7.7384    5.6656   -0.9147 C.ar    1  LIG1       -0.0478
     25 C          -8.6416    6.7182   -0.9542 C.ar    1  LIG1       -0.0349
     26 C          -9.7435    6.6836   -0.0943 C.ar    1  LIG1        0.0752
     27 N          -9.9632    5.6632    0.7333 N.ar    1  LIG1       -0.2356
     28 H          -6.8838    5.6551   -1.5794 H       1  LIG1        0.0626
     29 N          -9.6106    2.8145    2.5238 N.1     1  LIG1       -0.1893
     30 C          -9.3862    3.6077    1.7279 C.1     1  LIG1        0.1198
     31 H          -8.4986    7.5367   -1.6440 H       1  LIG1        0.0639
     32 C         -10.5383    9.1120   -0.2652 C.ar    1  LIG1        0.1491
     33 C         -10.7878    7.7519   -0.0589 C.ar    1  LIG1        0.0362
     34 C         -12.1079    7.3943    0.2302 C.ar    1  LIG1       -0.0484
     35 C         -13.0880    8.3720    0.2621 C.ar    1  LIG1       -0.0429
     36 C         -12.7208    9.6959    0.0146 C.ar    1  LIG1        0.0291
     37 N         -11.4705   10.0614   -0.2347 N.ar    1  LIG1       -0.2440
     38 H         -12.3327    6.3543    0.4275 H       1  LIG1        0.0625
     39 H         -13.4570   10.4894    0.0249 H       1  LIG1        0.0830
     40 N          -8.1158    9.9781   -0.6963 N.1     1  LIG1       -0.1893
     41 C          -9.1824    9.6032   -0.5023 C.1     1  LIG1        0.1198
     42 H         -14.1182    8.1239    0.4749 H       1  LIG1        0.0633
@<TRIPOS>BOND
     1     9    10    3
     2    10     1    1
     3    31    25    1
     4    28    24    1
     5    25    24   ar
     6    25    26   ar
     7    24    23   ar
     8     1     6   ar
     9     1     2   ar
    10     6     5   ar
    11    40    41    3
    12    41    32    1
    13    32    37   ar
    14    32    33   ar
    15    37    36   ar
    16    26    33    1
    17    26    27   ar
    18     8     2    1
    19    33    34   ar
    20    23    16    1
    21    23    22   ar
    22    17    12   ar
    23    17    16   ar
    24    20    19    3
    25    20    12    1
    26    12    13   ar
    27    16    15   ar
    28    36    39    1
    29    36    35   ar
    30     2     3   ar
    31    13     5    1
    32    13    14   ar
    33     5     4   ar
    34    15    14   ar
    35    15    21    1
    36    14    18    1
    37    34    35   ar
    38    34    38    1
    39    35    42    1
    40    27    22   ar
    41    22    30    1
    42     3     4   ar
    43     3     7    1
    44     4    11    1
    45    30    29    3
