@<TRIPOS>MOLECULE
mol_data/opt/m06hf/geoms/mol2/6da6da-4da6da.out
 43 46 0 0 0
SMALL
GASTEIGER

@<TRIPOS>ATOM
      1 C          -4.4247   -2.1900   -0.2545 C.ar    1  LIG1        0.1407
      2 C          -3.0655   -2.3067    0.0284 C.ar    1  LIG1       -0.0257
      3 C          -2.3775   -1.1399    0.3382 C.ar    1  LIG1       -0.0570
      4 C          -3.0583    0.0715    0.3382 C.ar    1  LIG1       -0.0355
      5 C          -4.4187    0.0748    0.0100 C.ar    1  LIG1        0.0752
      6 N          -5.0898   -1.0420   -0.2642 N.ar    1  LIG1       -0.2363
      7 H          -1.3250   -1.1716    0.5846 H       1  LIG1        0.0619
      8 H          -2.5883   -3.2760    0.0129 H       1  LIG1        0.0646
      9 N          -5.7763   -4.3536   -0.7851 N.1     1  LIG1       -0.1893
     10 C          -5.1975   -3.3911   -0.5568 C.1     1  LIG1        0.1191
     11 H          -2.5475    0.9883    0.5930 H       1  LIG1        0.0639
     12 C          -4.7894    2.5792   -0.3946 C.ar    1  LIG1        0.1498
     13 C          -5.2505    1.3167   -0.0067 C.ar    1  LIG1        0.0363
     14 C          -6.5953    1.2310    0.3633 C.ar    1  LIG1       -0.0478
     15 C          -7.3827    2.3695    0.3665 C.ar    1  LIG1       -0.0350
     16 C          -6.8043    3.5839   -0.0207 C.ar    1  LIG1        0.0737
     17 N          -5.5367    3.6775   -0.4015 N.ar    1  LIG1       -0.2356
     18 H          -6.9951    0.2670    0.6484 H       1  LIG1        0.0626
     19 N          -2.3507    2.9091   -1.2554 N.1     1  LIG1       -0.1893
     20 C          -3.4242    2.7713   -0.8769 C.1     1  LIG1        0.1198
     21 H          -8.4158    2.3336    0.6838 H       1  LIG1        0.0639
     22 C          -7.0573    6.0361    0.4840 C.ar    1  LIG1        0.0615
     23 C          -7.7953    7.2175    0.4676 C.ar    1  LIG1       -0.0359
     24 C          -7.5948    4.8493   -0.0305 C.ar    1  LIG1        0.0178
     25 C          -9.0827    7.2318   -0.0683 C.ar    1  LIG1       -0.0139
     26 H          -7.3687    8.1141    0.8986 H       1  LIG1        0.0637
     27 C          -8.8842    4.8738   -0.5577 C.ar    1  LIG1       -0.0508
     28 C          -9.6230    6.0511   -0.5814 C.ar    1  LIG1       -0.0532
     29 H          -9.3031    3.9698   -0.9807 H       1  LIG1        0.0625
     30 N          -4.7332    6.1418    1.6378 N.1     1  LIG1       -0.1908
     31 C          -5.7464    6.0645    1.1059 C.1     1  LIG1        0.0998
     32 H         -10.6161    6.0521   -1.0116 H       1  LIG1        0.0624
     33 C         -11.1570    8.6238    0.3753 C.ar    1  LIG1        0.1477
     34 C          -9.8446    8.5125   -0.0999 C.ar    1  LIG1        0.0180
     35 C          -9.2638    9.6802   -0.6003 C.ar    1  LIG1       -0.0499
     36 C          -9.9929   10.8601   -0.6067 C.ar    1  LIG1       -0.0429
     37 C         -11.2963   10.8423   -0.1109 C.ar    1  LIG1        0.0291
     38 N         -11.8688    9.7464    0.3724 N.ar    1  LIG1       -0.2440
     39 H          -8.2553    9.6472   -0.9935 H       1  LIG1        0.0625
     40 H         -11.9014   11.7399   -0.1021 H       1  LIG1        0.0830
     41 N         -12.3516    6.5289    1.3673 N.1     1  LIG1       -0.1893
     42 C         -11.8307    7.4561    0.9393 C.1     1  LIG1        0.1197
     43 H          -9.5683   11.7762   -0.9925 H       1  LIG1        0.0633
@<TRIPOS>BOND
     1    19    20    3
     2    32    28    1
     3    39    35    1
     4    43    36    1
     5    29    27    1
     6    20    12    1
     7     9    10    3
     8    36    35   ar
     9    36    37   ar
    10    35    34   ar
    11    28    27   ar
    12    28    25   ar
    13    27    24   ar
    14    10     1    1
    15    17    12   ar
    16    17    16   ar
    17    12    13   ar
    18     6     1   ar
    19     6     5   ar
    20     1     2   ar
    21    37    40    1
    22    37    38   ar
    23    34    25    1
    24    34    33   ar
    25    25    23   ar
    26    24    16    1
    27    24    22   ar
    28    16    15   ar
    29    13     5    1
    30    13    14   ar
    31     5     4   ar
    32     8     2    1
    33     2     3   ar
    34     4     3   ar
    35     4    11    1
    36     3     7    1
    37    14    15   ar
    38    14    18    1
    39    15    21    1
    40    38    33   ar
    41    33    42    1
    42    23    22   ar
    43    23    26    1
    44    22    31    1
    45    42    41    3
    46    31    30    3
