@<TRIPOS>MOLECULE
mol_data/opt/m06hf/geoms/mol2/6da6da-6da-6da.out
 42 45 0 0 0
SMALL
GASTEIGER

@<TRIPOS>ATOM
      1 C          -4.2889   -2.0848    0.6271 C.ar    1  LIG1        0.1407
      2 C          -3.1054   -2.3311   -0.0654 C.ar    1  LIG1       -0.0257
      3 C          -2.5991   -1.2996   -0.8459 C.ar    1  LIG1       -0.0570
      4 C          -3.2727   -0.0848   -0.8885 C.ar    1  LIG1       -0.0355
      5 C          -4.4361    0.0634   -0.1261 C.ar    1  LIG1        0.0752
      6 N          -4.9406   -0.9299    0.6037 N.ar    1  LIG1       -0.2363
      7 H          -1.6936   -1.4393   -1.4204 H       1  LIG1        0.0619
      8 H          -2.6241   -3.2959    0.0065 H       1  LIG1        0.0646
      9 N          -5.3201   -4.0144    2.0421 N.1     1  LIG1       -0.1893
     10 C          -4.8798   -3.1509    1.4302 C.1     1  LIG1        0.1191
     11 H          -2.9029    0.7239   -1.5012 H       1  LIG1        0.0639
     12 C          -4.7323    2.6128   -0.2396 C.ar    1  LIG1        0.1498
     13 C          -5.2490    1.3192   -0.1030 C.ar    1  LIG1        0.0363
     14 C          -6.6285    1.2193    0.1003 C.ar    1  LIG1       -0.0478
     15 C          -7.4087    2.3625    0.1193 C.ar    1  LIG1       -0.0349
     16 C          -6.7821    3.6000   -0.0624 C.ar    1  LIG1        0.0752
     17 N          -5.4715    3.7170   -0.2281 N.ar    1  LIG1       -0.2356
     18 H          -7.0586    0.2383    0.2547 H       1  LIG1        0.0626
     19 N          -2.1737    3.0247   -0.5199 N.1     1  LIG1       -0.1893
     20 C          -3.2991    2.8500   -0.3877 C.1     1  LIG1        0.1198
     21 H          -8.4746    2.3093    0.2933 H       1  LIG1        0.0639
     22 C          -7.1635    5.9978    0.6396 C.ar    1  LIG1        0.1498
     23 C          -7.5693    4.8657   -0.0766 C.ar    1  LIG1        0.0363
     24 C          -8.7382    4.9834   -0.8243 C.ar    1  LIG1       -0.0478
     25 C          -9.4393    6.1810   -0.8333 C.ar    1  LIG1       -0.0349
     26 C          -8.9544    7.2423   -0.0634 C.ar    1  LIG1        0.0752
     27 N          -7.8320    7.1421    0.6473 N.ar    1  LIG1       -0.2356
     28 H          -9.0807    4.1479   -1.4218 H       1  LIG1        0.0626
     29 N          -5.0586    5.9687    2.1752 N.1     1  LIG1       -0.1893
     30 C          -5.9706    5.9694    1.4814 C.1     1  LIG1        0.1198
     31 H         -10.3313    6.2865   -1.4326 H       1  LIG1        0.0639
     32 C         -10.9842    8.8106   -0.1049 C.ar    1  LIG1        0.1491
     33 C          -9.6071    8.5858   -0.0048 C.ar    1  LIG1        0.0362
     34 C          -8.8032    9.7124    0.1928 C.ar    1  LIG1       -0.0484
     35 C          -9.3854   10.9676    0.2434 C.ar    1  LIG1       -0.0429
     36 C         -10.7702   11.0680    0.1035 C.ar    1  LIG1        0.0291
     37 N         -11.5557   10.0117   -0.0581 N.ar    1  LIG1       -0.2440
     38 H          -7.7363    9.5743    0.3080 H       1  LIG1        0.0625
     39 H         -11.2651   12.0305    0.1330 H       1  LIG1        0.0830
     40 N         -12.6531    6.8206   -0.3436 N.1     1  LIG1       -0.1893
     41 C         -11.9244    7.6994   -0.2355 C.1     1  LIG1        0.1198
     42 H          -8.7864   11.8554    0.3894 H       1  LIG1        0.0633
@<TRIPOS>BOND
     1    11     4    1
     2    31    25    1
     3    28    24    1
     4     7     3    1
     5     4     3   ar
     6     4     5   ar
     7     3     2   ar
     8    25    24   ar
     9    25    26   ar
    10    24    23   ar
    11    19    20    3
    12    20    12    1
    13    40    41    3
    14    12    17   ar
    15    12    13   ar
    16    41    32    1
    17    17    16   ar
    18     5    13    1
    19     5     6   ar
    20    32    37   ar
    21    32    33   ar
    22    13    14   ar
    23    23    16    1
    24    23    22   ar
    25     2     8    1
    26     2     1   ar
    27    26    33    1
    28    26    27   ar
    29    16    15   ar
    30    37    36   ar
    31    33    34   ar
    32    14    15   ar
    33    14    18    1
    34    36    39    1
    35    36    35   ar
    36    15    21    1
    37    34    35   ar
    38    34    38    1
    39    35    42    1
    40     6     1   ar
    41     1    10    1
    42    22    27   ar
    43    22    30    1
    44    10     9    3
    45    30    29    3
