@<TRIPOS>MOLECULE
mol_data/opt/m06hf/geoms/mol2/6da6da6da.out
 32 34 0 0 0
SMALL
GASTEIGER

@<TRIPOS>ATOM
      1 C          -4.1027   -1.8992   -0.8925 C.ar    1  LIG1        0.1407
      2 C          -3.0947   -2.1767    0.0293 C.ar    1  LIG1       -0.0257
      3 C          -2.8519   -1.2340    1.0210 C.ar    1  LIG1       -0.0570
      4 C          -3.6150   -0.0731    1.0445 C.ar    1  LIG1       -0.0355
      5 C          -4.5987    0.0999    0.0670 C.ar    1  LIG1        0.0752
      6 N          -4.8402   -0.7952   -0.8856 N.ar    1  LIG1       -0.2363
      7 H          -2.0886   -1.4063    1.7672 H       1  LIG1        0.0619
      8 H          -2.5379   -3.1004   -0.0386 H       1  LIG1        0.0646
      9 N          -4.5488   -3.6440   -2.7745 N.1     1  LIG1       -0.1893
     10 C          -4.3768   -2.8637   -1.9532 C.1     1  LIG1        0.1191
     11 H          -3.4772    0.6762    1.8120 H       1  LIG1        0.0639
     12 C          -6.8416    1.2568    0.0157 C.ar    1  LIG1        0.1498
     13 C          -5.4430    1.3309    0.0456 C.ar    1  LIG1        0.0363
     14 C          -4.8749    2.6016    0.0517 C.ar    1  LIG1       -0.0478
     15 C          -5.6991    3.7185    0.0112 C.ar    1  LIG1       -0.0349
     16 C          -7.0806    3.5239   -0.0271 C.ar    1  LIG1        0.0752
     17 N          -7.6381    2.3162   -0.0177 N.ar    1  LIG1       -0.2356
     18 H          -3.7979    2.7090    0.0730 H       1  LIG1        0.0626
     19 N          -8.0319   -1.0581    0.1161 N.1     1  LIG1       -0.1893
     20 C          -7.5088   -0.0405    0.0579 C.1     1  LIG1        0.1198
     21 H          -5.2904    4.7198    0.0240 H       1  LIG1        0.0639
     22 C          -9.0580    4.8169    0.8500 C.ar    1  LIG1        0.1491
     23 C          -8.0184    4.6836   -0.0770 C.ar    1  LIG1        0.0362
     24 C          -7.9049    5.6719   -1.0518 C.ar    1  LIG1       -0.0484
     25 C          -8.8225    6.7140   -1.0710 C.ar    1  LIG1       -0.0429
     26 C          -9.8256    6.7350   -0.1039 C.ar    1  LIG1        0.0291
     27 N          -9.9384    5.8106    0.8446 N.ar    1  LIG1       -0.2440
     28 H          -7.1210    5.6043   -1.7959 H       1  LIG1        0.0625
     29 H         -10.5656    7.5249   -0.0883 H       1  LIG1        0.0830
     30 N          -9.2680    3.1239    2.8204 N.1     1  LIG1       -0.1893
     31 C          -9.1898    3.8547    1.9411 C.1     1  LIG1        0.1198
     32 H          -8.7722    7.4906   -1.8209 H       1  LIG1        0.0633
@<TRIPOS>BOND
     1     9    10    3
     2    10     1    1
     3    32    25    1
     4    28    24    1
     5    25    24   ar
     6    25    26   ar
     7    24    23   ar
     8     1     6   ar
     9     1     2   ar
    10     6     5   ar
    11    26    29    1
    12    26    27   ar
    13    23    16    1
    14    23    22   ar
    15     8     2    1
    16    16    17   ar
    17    16    15   ar
    18    17    12   ar
    19    15    21    1
    20    15    14   ar
    21    12    13   ar
    22    12    20    1
    23     2     3   ar
    24    13    14   ar
    25    13     5    1
    26    14    18    1
    27    20    19    3
    28     5     4   ar
    29    27    22   ar
    30    22    31    1
    31     3     4   ar
    32     3     7    1
    33     4    11    1
    34    31    30    3
