@<TRIPOS>MOLECULE
mol_data/opt/m06hf/geoms/mol2/6da6da6da-6da-.out
 42 45 0 0 0
SMALL
GASTEIGER

@<TRIPOS>ATOM
      1 C          -4.3246   -2.1254   -0.6240 C.ar    1  LIG1        0.1407
      2 C          -3.1246   -2.3287    0.0556 C.ar    1  LIG1       -0.0257
      3 C          -2.6197   -1.2696    0.8006 C.ar    1  LIG1       -0.0570
      4 C          -3.3246   -0.0729    0.8307 C.ar    1  LIG1       -0.0355
      5 C          -4.5144    0.0203    0.1029 C.ar    1  LIG1        0.0752
      6 N          -5.0066   -0.9869   -0.6113 N.ar    1  LIG1       -0.2363
      7 H          -1.6975   -1.3794    1.3548 H       1  LIG1        0.0619
      8 H          -2.6235   -3.2842   -0.0043 H       1  LIG1        0.0646
      9 N          -5.2818   -4.0989   -2.0287 N.1     1  LIG1       -0.1893
     10 C          -4.8840   -3.2167   -1.4152 C.1     1  LIG1        0.1191
     11 H          -2.9799    0.7665    1.4190 H       1  LIG1        0.0639
     12 C          -6.6981    1.2782    0.2525 C.ar    1  LIG1        0.1498
     13 C          -5.3072    1.2832    0.0887 C.ar    1  LIG1        0.0363
     14 C          -4.7042    2.5251   -0.0883 C.ar    1  LIG1       -0.0478
     15 C          -5.4784    3.6772   -0.1188 C.ar    1  LIG1       -0.0349
     16 C          -6.8639    3.5503    0.0109 C.ar    1  LIG1        0.0752
     17 N          -7.4472    2.3699    0.2146 N.ar    1  LIG1       -0.2356
     18 H          -3.6315    2.5896   -0.2200 H       1  LIG1        0.0626
     19 N          -7.9998   -0.9062    0.8185 N.1     1  LIG1       -0.1893
     20 C          -7.4164    0.0408    0.5435 C.1     1  LIG1        0.1198
     21 H          -5.0120    4.6428   -0.2461 H       1  LIG1        0.0639
     22 C          -7.6105    5.9013   -0.7084 C.ar    1  LIG1        0.1498
     23 C          -7.8094    4.7086   -0.0038 C.ar    1  LIG1        0.0363
     24 C          -9.0033    4.6033    0.7155 C.ar    1  LIG1       -0.0478
     25 C          -9.8955    5.6611    0.7292 C.ar    1  LIG1       -0.0349
     26 C          -9.5773    6.8141    0.0043 C.ar    1  LIG1        0.0752
     27 N          -8.4616    6.9217   -0.7054 N.ar    1  LIG1       -0.2356
     28 H          -9.2032    3.6863    1.2537 H       1  LIG1        0.0626
     29 N          -5.5204    6.2502   -2.2266 N.1     1  LIG1       -0.1893
     30 C          -6.4412    6.1003   -1.5598 C.1     1  LIG1        0.1198
     31 H         -10.8110    5.6129    1.3029 H       1  LIG1        0.0639
     32 C         -10.0307    9.2877    0.2096 C.ar    1  LIG1        0.1491
     33 C         -10.4971    7.9875   -0.0186 C.ar    1  LIG1        0.0362
     34 C         -11.8582    7.8361   -0.2744 C.ar    1  LIG1       -0.0484
     35 C         -12.6725    8.9599   -0.3050 C.ar    1  LIG1       -0.0429
     36 C         -12.0936   10.2067   -0.0760 C.ar    1  LIG1        0.0291
     37 N         -10.8005   10.3696    0.1841 N.ar    1  LIG1       -0.2440
     38 H         -12.2624    6.8503   -0.4694 H       1  LIG1        0.0625
     39 H         -12.6919   11.1087   -0.0990 H       1  LIG1        0.0830
     40 N          -7.5424    9.6958    0.8694 N.1     1  LIG1       -0.1893
     41 C          -8.6301    9.5156    0.5565 C.1     1  LIG1        0.1198
     42 H         -13.7303    8.8792   -0.5109 H       1  LIG1        0.0633
@<TRIPOS>BOND
     1    29    30    3
     2     9    10    3
     3    30    22    1
     4    10     1    1
     5    22    27   ar
     6    22    23   ar
     7    27    26   ar
     8     1     6   ar
     9     1     2   ar
    10     6     5   ar
    11    42    35    1
    12    38    34    1
    13    35    34   ar
    14    35    36   ar
    15    34    33   ar
    16    21    15    1
    17    18    14    1
    18    15    14   ar
    19    15    16   ar
    20    39    36    1
    21    14    13   ar
    22    36    37   ar
    23    33    26    1
    24    33    32   ar
    25     8     2    1
    26    23    16    1
    27    23    24   ar
    28    26    25   ar
    29    16    17   ar
    30     2     3   ar
    31    13     5    1
    32    13    12   ar
    33     5     4   ar
    34    37    32   ar
    35    32    41    1
    36    17    12   ar
    37    12    20    1
    38    20    19    3
    39    41    40    3
    40    24    25   ar
    41    24    28    1
    42    25    31    1
    43     3     4   ar
    44     3     7    1
    45     4    11    1
