@<TRIPOS>MOLECULE
mol_data/opt/m06hf/geoms/mol2/6dd.out
 13 13 0 0 0
SMALL
GASTEIGER

@<TRIPOS>ATOM
      1 C          -4.5744   -1.9961    0.0000 C.ar    1  LIG1        0.1401
      2 C          -3.1812   -2.0271   -0.0000 C.ar    1  LIG1       -0.0246
      3 C          -2.5087   -0.8123   -0.0002 C.ar    1  LIG1       -0.0402
      4 C          -3.2664    0.3556   -0.0003 C.ar    1  LIG1        0.0699
      5 C          -4.6640    0.2733   -0.0002 C.ar    1  LIG1        0.0464
      6 N          -5.3064   -0.8847   -0.0000 N.ar    1  LIG1       -0.2434
      7 H          -1.4286   -0.7657   -0.0002 H       1  LIG1        0.0632
      8 H          -2.6564   -2.9713    0.0001 H       1  LIG1        0.0646
      9 H          -5.2655    1.1730   -0.0003 H       1  LIG1        0.0843
     10 N          -5.8468   -4.2689    0.0004 N.1     1  LIG1       -0.1893
     11 C          -5.3074   -3.2580    0.0002 C.1     1  LIG1        0.1191
     12 N          -2.1217    2.6828   -0.0006 N.1     1  LIG1       -0.1908
     13 C          -2.6265    1.6533   -0.0004 C.1     1  LIG1        0.1007
@<TRIPOS>BOND
     1    12    13    3
     2    13     4    1
     3     9     5    1
     4     4     5   ar
     5     4     3   ar
     6     7     3    1
     7     5     6   ar
     8     3     2   ar
     9     6     1   ar
    10     2     1   ar
    11     2     8    1
    12     1    11    1
    13    11    10    3
