@<TRIPOS>MOLECULE
mol_data/opt/m06hf/geoms/mol2/6dd12el-4ae13lf-12ef-12il12ld-13fe-.out
 98 105 0 0 0
SMALL
GASTEIGER

@<TRIPOS>ATOM
      1 C          -4.5981   -2.2238    1.8936 C.ar    1  LIG1        0.1409
      2 C          -3.4846   -2.7278    1.2195 C.ar    1  LIG1       -0.0245
      3 C          -2.9939   -1.9837    0.1600 C.ar    1  LIG1       -0.0395
      4 C          -3.6198   -0.7804   -0.1654 C.ar    1  LIG1        0.0808
      5 C          -4.7074   -0.3447    0.6067 C.ar    1  LIG1        0.1261
      6 N          -5.1896   -1.0728    1.6105 N.ar    1  LIG1       -0.2319
      7 H          -2.1565   -2.3297   -0.4303 H       1  LIG1        0.0632
      8 H          -3.0471   -3.6706    1.5132 H       1  LIG1        0.0646
      9 N          -5.5666   -3.6193    3.8681 N.1     1  LIG1       -0.1893
     10 C          -5.1597   -2.9904    3.0007 C.1     1  LIG1        0.1191
     11 N          -2.8410    0.3894   -2.3418 N.1     1  LIG1       -0.1908
     12 C          -3.1941   -0.0827   -1.3571 C.1     1  LIG1        0.1014
     13 C          -5.4134    0.9214    0.3487 C.ar    1  LIG1        0.1741
     14 C          -5.0111    2.1854    0.0152 C.ar    1  LIG1        0.1142
     15 C          -6.2260    2.9663   -0.0398 C.ar    1  LIG1        0.1817
     16 C          -7.2500    2.1230    0.2724 C.ar    1  LIG1        0.1784
     17 O          -6.7447    0.8907    0.5151 O.2     1  LIG1       -0.4482
     18 C          -3.6820    2.6861   -0.1431 C.1     1  LIG1       -0.0621
     19 C          -2.5738    3.1296   -0.2773 C.1     1  LIG1       -0.1137
     20 H          -1.5885    3.5174   -0.4001 H       1  LIG1        0.1232
     21 O          -6.3273    4.2827   -0.3321 O.3     1  LIG1       -0.4901
     22 C          -5.9930    4.5916   -1.6919 C.3     1  LIG1        0.0790
     23 H          -6.0958    5.6691   -1.7882 H       1  LIG1        0.0660
     24 H          -4.9673    4.2902   -1.9040 H       1  LIG1        0.0660
     25 H          -6.6846    4.0802   -2.3639 H       1  LIG1        0.0660
     26 C          -9.3665    3.4241   -0.0667 C.ar    1  LIG1       -0.0503
     27 C         -10.7523    3.4571   -0.1091 C.ar    1  LIG1       -0.0507
     28 C          -8.7072    2.2557    0.3326 C.ar    1  LIG1        0.0222
     29 C         -11.5212    2.3343    0.2288 C.ar    1  LIG1        0.0174
     30 H         -11.2708    4.3492   -0.4339 H       1  LIG1        0.0625
     31 C          -9.4546    1.1564    0.7443 C.ar    1  LIG1       -0.0349
     32 C         -10.8472    1.1782    0.6789 C.ar    1  LIG1        0.0346
     33 H          -8.9560    0.2674    1.1107 H       1  LIG1        0.0637
     34 H          -8.7857    4.2909   -0.3542 H       1  LIG1        0.0625
     35 C         -11.5154   -0.0518    1.0586 C.1     1  LIG1       -0.0690
     36 C         -12.0336   -1.1038    1.3405 C.1     1  LIG1       -0.1139
     37 H         -12.5143   -2.0271    1.5817 H       1  LIG1        0.1232
     38 C         -12.9806    2.3852    0.0714 C.ar    1  LIG1        0.0942
     39 C         -13.8585    3.4611   -0.0547 C.ar    1  LIG1        0.1874
     40 C         -15.1689    2.9397   -0.1997 C.ar    1  LIG1        0.1881
     41 C         -15.0496    1.5559   -0.1707 C.ar    1  LIG1        0.1296
     42 N         -13.7271    1.2618   -0.0216 N.ar    1  LIG1       -0.3458
     43 H         -13.3729    0.3162    0.0210 H       1  LIG1        0.1662
     44 O         -13.5133    4.7777   -0.0440 O.3     1  LIG1       -0.4895
     45 C         -14.0727    5.5042    1.0538 C.3     1  LIG1        0.0791
     46 H         -13.7329    6.5308    0.9426 H       1  LIG1        0.0660
     47 H         -15.1610    5.4582    1.0115 H       1  LIG1        0.0660
     48 H         -13.7112    5.0846    1.9945 H       1  LIG1        0.0660
     49 O         -16.2753    3.7142   -0.3021 O.3     1  LIG1       -0.5018
     50 H         -17.0566    3.1746   -0.4877 H       1  LIG1        0.2924
     51 C         -15.9461    0.4248   -0.2239 C.ar    1  LIG1        0.1746
     52 C         -17.2771    0.2068   -0.4676 C.ar    1  LIG1        0.1141
     53 C         -17.4510   -1.2261   -0.3971 C.ar    1  LIG1        0.1822
     54 C         -16.2341   -1.7556   -0.1012 C.ar    1  LIG1        0.2134
     55 O         -15.3272   -0.7454    0.0017 O.2     1  LIG1       -0.4450
     56 C         -18.2582    1.1959   -0.7798 C.1     1  LIG1       -0.0621
     57 C         -19.0775    2.0376   -1.0458 C.1     1  LIG1       -0.1137
     58 H         -19.8183    2.7649   -1.2906 H       1  LIG1        0.1232
     59 O         -18.6305   -1.8451   -0.6174 O.3     1  LIG1       -0.5023
     60 H         -18.4824   -2.7812   -0.7978 H       1  LIG1        0.2923
     61 C         -15.7118   -3.0931    0.1067 C.ar    1  LIG1        0.1810
     62 C         -16.2265   -4.2244    0.6631 C.ar    1  LIG1        0.0410
     63 C         -15.1369   -5.1684    0.6445 C.ar    1  LIG1        0.1724
     64 C         -14.0667   -4.5388    0.0783 C.ar    1  LIG1        0.2160
     65 O         -14.4173   -3.2742   -0.2532 O.2     1  LIG1       -0.4443
     66 C         -17.5778   -4.4419    1.2922 C.3     1  LIG1       -0.0325
     67 H         -17.4565   -5.0662    2.1775 H       1  LIG1        0.0280
     68 H         -18.2603   -4.9537    0.6095 H       1  LIG1        0.0280
     69 H         -18.0168   -3.4870    1.5842 H       1  LIG1        0.0280
     70 O         -15.1611   -6.4130    1.1756 O.3     1  LIG1       -0.4909
     71 C         -15.6938   -7.4067    0.3015 C.3     1  LIG1        0.0790
     72 H         -15.5358   -8.3617    0.7960 H       1  LIG1        0.0660
     73 H         -16.7609   -7.2359    0.1411 H       1  LIG1        0.0660
     74 H         -15.1628   -7.3836   -0.6501 H       1  LIG1        0.0660
     75 C         -12.6996   -4.9405   -0.1944 C.ar    1  LIG1        0.2170
     76 C         -12.0895   -6.1506   -0.2918 C.ar    1  LIG1        0.1870
     77 C         -10.6897   -5.8815   -0.5450 C.ar    1  LIG1        0.1413
     78 C         -10.5729   -4.5172   -0.6088 C.ar    1  LIG1        0.1766
     79 O         -11.7740   -3.9535   -0.3818 O.2     1  LIG1       -0.4448
     80 O         -12.6816   -7.3542   -0.1554 O.3     1  LIG1       -0.4900
     81 C         -12.4691   -8.2587   -1.2459 C.3     1  LIG1        0.0790
     82 H         -13.0726   -9.1343   -1.0204 H       1  LIG1        0.0660
     83 H         -12.8011   -7.7973   -2.1779 H       1  LIG1        0.0660
     84 H         -11.4192   -8.5397   -1.3149 H       1  LIG1        0.0660
     85 N          -8.8797   -7.7150   -0.6076 N.1     1  LIG1       -0.1906
     86 C          -9.6549   -6.8683   -0.5947 C.1     1  LIG1        0.1068
     87 C          -9.4792   -3.6182   -0.8881 C.ar    1  LIG1        0.1267
     88 C          -8.2524   -3.8460   -1.4785 C.ar    1  LIG1        0.1605
     89 C          -7.5781   -2.5971   -1.5648 C.ar    1  LIG1        0.0840
     90 C          -8.4362   -1.6459   -1.0342 C.ar    1  LIG1        0.0214
     91 N          -9.5611   -2.2636   -0.6350 N.ar    1  LIG1       -0.3541
     92 H         -10.3598   -1.8106   -0.2038 H       1  LIG1        0.1656
     93 H          -8.2937   -0.5844   -0.9314 H       1  LIG1        0.0820
     94 O          -7.8113   -5.0388   -1.9186 O.3     1  LIG1       -0.5034
     95 H          -6.9276   -4.9371   -2.2940 H       1  LIG1        0.2923
     96 C          -6.2857   -2.4035   -2.1449 C.1     1  LIG1       -0.0645
     97 C          -5.2051   -2.2819   -2.6633 C.1     1  LIG1       -0.1137
     98 H          -4.2686   -2.1328   -3.1512 H       1  LIG1        0.1232
@<TRIPOS>BOND
     1    98    97    1
     2    97    96    3
     3    25    22    1
     4    11    12    3
     5    95    94    1
     6    83    81    1
     7    96    89    1
     8    94    88    1
     9    24    22    1
    10    23    22    1
    11    22    21    1
    12    89    88   ar
    13    89    90   ar
    14    88    87   ar
    15    12     4    1
    16    84    81    1
    17    58    57    1
    18    81    82    1
    19    81    80    1
    20    57    56    3
    21    90    93    1
    22    90    91   ar
    23    87    91   ar
    24    87    78    1
    25    60    59    1
    26    56    52    1
    27    74    71    1
    28    91    92    1
    29    59    53    1
    30    78    77   ar
    31    78    79   ar
    32    85    86    3
    33    86    77    1
    34    77    76   ar
    35    50    49    1
    36    52    53   ar
    37    52    51   ar
    38    30    27    1
    39     7     3    1
    40    20    19    1
    41    53    54   ar
    42    79    75   ar
    43    34    26    1
    44    21    15    1
    45    49    40    1
    46    76    75   ar
    47    76    80    1
    48    19    18    3
    49    65    64   ar
    50    65    61   ar
    51    51    41    1
    52    51    55   ar
    53    40    41   ar
    54    40    39   ar
    55    75    64    1
    56    41    42   ar
    57     4     3   ar
    58     4     5   ar
    59    18    14    1
    60    27    26   ar
    61    27    29   ar
    62    54    55   ar
    63    54    61    1
    64    26    28   ar
    65    39    44    1
    66    39    38   ar
    67    44    45    1
    68    15    14   ar
    69    15    16   ar
    70    42    43    1
    71    42    38   ar
    72    14    13   ar
    73    38    29    1
    74    64    63   ar
    75    61    62   ar
    76    73    71    1
    77     3     2   ar
    78    29    32   ar
    79    16    28    1
    80    16    17   ar
    81    71    72    1
    82    71    70    1
    83    28    31   ar
    84    13    17   ar
    85    13     5    1
    86     5     6   ar
    87    68    66    1
    88    63    62   ar
    89    63    70    1
    90    62    66    1
    91    32    31   ar
    92    32    35    1
    93    31    33    1
    94    46    45    1
    95    47    45    1
    96    45    48    1
    97    35    36    3
    98     2     8    1
    99     2     1   ar
   100    66    69    1
   101    66    67    1
   102    36    37    1
   103     6     1   ar
   104     1    10    1
   105    10     9    3
