@<TRIPOS>MOLECULE
mol_data/opt/m06hf/geoms/mol2/6dd4ha6he-13hi12ld6ad6ll12fe.out
 100 107 0 0 0
SMALL
GASTEIGER

@<TRIPOS>ATOM
      1 C          -4.8589   -2.4699   -0.2996 C.ar    1  LIG1        0.1408
      2 C          -3.4810   -2.5721   -0.4703 C.ar    1  LIG1       -0.0245
      3 C          -2.7703   -1.3882   -0.6108 C.ar    1  LIG1       -0.0396
      4 C          -3.4670   -0.1827   -0.5904 C.ar    1  LIG1        0.0778
      5 C          -4.8701   -0.1865   -0.4480 C.ar    1  LIG1        0.0915
      6 N          -5.5377   -1.3267   -0.2924 N.ar    1  LIG1       -0.2350
      7 H          -1.6940   -1.3869   -0.7189 H       1  LIG1        0.0632
      8 H          -2.9984   -3.5383   -0.4757 H       1  LIG1        0.0646
      9 N          -6.2194   -4.6689    0.0186 N.1     1  LIG1       -0.1893
     10 C          -5.6405   -3.6896   -0.1192 C.1     1  LIG1        0.1191
     11 N          -2.0798    2.0071   -0.6659 N.1     1  LIG1       -0.1908
     12 C          -2.7232    1.0578   -0.6490 C.1     1  LIG1        0.1013
     13 C          -5.5968    2.0034   -1.4638 C.ar    1  LIG1        0.0344
     14 C          -6.3165    3.1988   -1.3411 C.ar    1  LIG1       -0.0326
     15 C          -5.6569    1.0775   -0.4092 C.ar    1  LIG1        0.0223
     16 C          -7.0924    3.4610   -0.2163 C.ar    1  LIG1       -0.0128
     17 H          -6.2925    3.9189   -2.1506 H       1  LIG1        0.0642
     18 C          -6.4738    1.3230    0.6946 C.ar    1  LIG1       -0.0502
     19 C          -7.1850    2.5075    0.8077 C.ar    1  LIG1       -0.0532
     20 H          -6.5225    0.5757    1.4764 H       1  LIG1        0.0625
     21 N          -4.8366    1.7467   -2.5951 N.pl3   1  LIG1       -0.3574
     22 H          -4.7789    0.7827   -2.8917 H       1  LIG1        0.1423
     23 H          -4.9621    2.3896   -3.3627 H       1  LIG1        0.1423
     24 H          -7.7860    2.7112    1.6843 H       1  LIG1        0.0624
     25 C          -9.2189    4.8152    0.1330 C.ar    1  LIG1        0.1247
     26 C          -7.8179    4.7585   -0.1130 C.ar    1  LIG1        0.0229
     27 C          -7.1756    5.9626   -0.2981 C.ar    1  LIG1       -0.0332
     28 C          -7.8629    7.1839   -0.2005 C.ar    1  LIG1        0.0528
     29 C          -9.2236    7.1350    0.1382 C.ar    1  LIG1        0.1064
     30 N          -9.8687    5.9657    0.2571 N.ar    1  LIG1       -0.2291
     31 H          -6.1165    5.9747   -0.5253 H       1  LIG1        0.0638
     32 N          -9.9537    3.6804    0.2649 N.pl3   1  LIG1       -0.3426
     33 H         -10.9526    3.7877    0.3365 H       1  LIG1        0.1437
     34 H          -9.5705    2.7937   -0.0184 H       1  LIG1        0.1437
     35 C          -7.1685    8.3911   -0.5540 C.1     1  LIG1       -0.0674
     36 C          -6.5456    9.3671   -0.8864 C.1     1  LIG1       -0.1138
     37 H          -6.0054   10.2295   -1.2031 H       1  LIG1        0.1232
     38 C         -10.0849    8.3064    0.3427 C.ar    1  LIG1        0.0879
     39 C          -9.9180    9.6047    0.8249 C.ar    1  LIG1        0.0554
     40 C         -11.2050   10.2111    0.8784 C.ar    1  LIG1       -0.0007
     41 C         -12.1073    9.2547    0.4382 C.ar    1  LIG1        0.0911
     42 N         -11.4279    8.1259    0.1328 N.ar    1  LIG1       -0.3487
     43 H         -11.8115    7.2331   -0.1391 H       1  LIG1        0.1661
     44 N          -8.7806   10.2193    1.3460 N.pl3   1  LIG1       -0.3561
     45 H          -7.9055    9.8504    0.9992 H       1  LIG1        0.1424
     46 H          -8.8094   11.2276    1.2634 H       1  LIG1        0.1424
     47 C         -11.4791   11.5852    1.4328 C.3     1  LIG1       -0.0358
     48 H         -12.5501   11.7633    1.5148 H       1  LIG1        0.0279
     49 H         -11.0534   12.3623    0.7900 H       1  LIG1        0.0279
     50 H         -11.0242   11.6732    2.4219 H       1  LIG1        0.0279
     51 C         -13.5524    9.2998    0.2841 C.ar    1  LIG1        0.1947
     52 C         -14.4576   10.2920    0.0515 C.ar    1  LIG1        0.1852
     53 C         -15.7440    9.6523   -0.0362 C.ar    1  LIG1        0.1397
     54 C         -15.5278    8.3140    0.1414 C.ar    1  LIG1        0.1583
     55 O         -14.2125    8.1103    0.3306 O.2     1  LIG1       -0.4482
     56 O         -14.2540   11.6201   -0.0899 O.3     1  LIG1       -0.4901
     57 C         -13.5746   11.9787   -1.3009 C.3     1  LIG1        0.0790
     58 H         -13.4764   13.0606   -1.2771 H       1  LIG1        0.0660
     59 H         -12.5910   11.5065   -1.3284 H       1  LIG1        0.0660
     60 H         -14.1703   11.6688   -2.1606 H       1  LIG1        0.0660
     61 N         -17.9906   10.8307   -0.4974 N.1     1  LIG1       -0.1906
     62 C         -16.9875   10.3141   -0.2864 C.1     1  LIG1        0.1067
     63 C         -15.8374    5.8730    0.4191 C.ar    1  LIG1        0.0390
     64 C         -16.3942    7.1338    0.1638 C.ar    1  LIG1        0.0380
     65 C         -17.7655    7.2043   -0.0634 C.ar    1  LIG1       -0.0301
     66 C         -18.4988    6.0211   -0.0231 C.ar    1  LIG1        0.0785
     67 C         -17.8534    4.7977    0.2297 C.ar    1  LIG1        0.0935
     68 N         -16.5383    4.7511    0.4439 N.ar    1  LIG1       -0.2528
     69 H         -18.2665    8.1434   -0.2601 H       1  LIG1        0.0639
     70 H         -14.7751    5.7825    0.6082 H       1  LIG1        0.0837
     71 N         -21.0565    6.1342   -0.4493 N.1     1  LIG1       -0.1908
     72 C         -19.9288    6.0774   -0.2453 C.1     1  LIG1        0.1013
     73 C         -18.4332    2.5990    1.3133 C.ar    1  LIG1        0.2248
     74 C         -18.5983    3.5121    0.2547 C.ar    1  LIG1        0.0666
     75 C         -19.4886    3.1715   -0.7548 C.ar    1  LIG1       -0.0034
     76 C         -20.1745    1.9580   -0.7020 C.ar    1  LIG1        0.1500
     77 C         -19.8817    1.0945    0.3589 C.ar    1  LIG1        0.1549
     78 N         -19.0408    1.4324    1.3393 N.ar    1  LIG1       -0.2054
     79 H         -19.6500    3.8567   -1.5762 H       1  LIG1        0.0663
     80 O         -17.6444    2.9491    2.3387 O.3     1  LIG1       -0.4792
     81 C         -17.5107    2.0027    3.3956 C.3     1  LIG1        0.0804
     82 H         -16.8500    2.4760    4.1164 H       1  LIG1        0.0660
     83 H         -18.4832    1.7890    3.8377 H       1  LIG1        0.0660
     84 H         -17.0778    1.0765    3.0191 H       1  LIG1        0.0660
     85 O         -21.1134    1.5703   -1.5903 O.3     1  LIG1       -0.4928
     86 C         -21.5268    2.5106   -2.5657 C.3     1  LIG1        0.0789
     87 H         -22.3546    2.0438   -3.0912 H       1  LIG1        0.0660
     88 H         -21.8582    3.4375   -2.0897 H       1  LIG1        0.0660
     89 H         -20.7161    2.7186   -3.2691 H       1  LIG1        0.0660
     90 C         -20.5151   -0.2253    0.4660 C.ar    1  LIG1        0.1990
     91 C         -20.8957   -1.1800   -0.4294 C.ar    1  LIG1        0.1800
     92 C         -21.4015   -2.2875    0.3456 C.ar    1  LIG1        0.1045
     93 C         -21.2767   -1.9087    1.6471 C.ar    1  LIG1        0.1117
     94 O         -20.7485   -0.6906    1.7271 O.2     1  LIG1       -0.4562
     95 H         -21.5248   -2.4042    2.5689 H       1  LIG1        0.1043
     96 O         -20.7902   -1.1621   -1.7710 O.3     1  LIG1       -0.5024
     97 H         -21.0730   -2.0202   -2.1123 H       1  LIG1        0.2923
     98 C         -21.8999   -3.5028   -0.2204 C.1     1  LIG1       -0.0628
     99 C         -22.3025   -4.4965   -0.7645 C.1     1  LIG1       -0.1137
    100 H         -22.6654   -5.3843   -1.2286 H       1  LIG1        0.1232
@<TRIPOS>BOND
     1    23    21    1
     2    89    86    1
     3    87    86    1
     4    22    21    1
     5    21    13    1
     6    86    88    1
     7    86    85    1
     8    60    57    1
     9    17    14    1
    10    97    96    1
    11    96    91    1
    12    85    76    1
    13    79    75    1
    14    13    14   ar
    15    13    15   ar
    16    14    16   ar
    17    59    57    1
    18    57    58    1
    19    57    56    1
    20   100    99    1
    21    37    36    1
    22    36    35    3
    23    99    98    3
    24    75    76   ar
    25    75    74   ar
    26     7     3    1
    27    76    77   ar
    28    11    12    3
    29    12     4    1
    30     3     4   ar
    31     3     2   ar
    32     4     5   ar
    33    35    28    1
    34    31    27    1
    35    61    62    3
    36     8     2    1
    37     2     1   ar
    38    71    72    3
    39     5    15    1
    40     5     6   ar
    41    91    92   ar
    42    91    90   ar
    43    15    18   ar
    44     1     6   ar
    45     1    10    1
    46    27    28   ar
    47    27    26   ar
    48    62    53    1
    49    69    65    1
    50    72    66    1
    51    98    92    1
    52    16    26    1
    53    16    19   ar
    54    28    29   ar
    55    43    42    1
    56    10     9    3
    57    26    25   ar
    58    56    52    1
    59    65    66   ar
    60    65    64   ar
    61    53    52   ar
    62    53    54   ar
    63    66    67   ar
    64    34    32    1
    65    52    51   ar
    66    42    38   ar
    67    42    41   ar
    68    25    30   ar
    69    25    32    1
    70    29    30   ar
    71    29    38    1
    72    54    64    1
    73    54    55   ar
    74    64    63   ar
    75    67    74    1
    76    67    68   ar
    77    74    73   ar
    78    32    33    1
    79    51    55   ar
    80    51    41    1
    81    38    39   ar
    82    92    93   ar
    83    77    90    1
    84    77    78   ar
    85    63    68   ar
    86    63    70    1
    87    41    40   ar
    88    90    94   ar
    89    18    19   ar
    90    18    20    1
    91    49    47    1
    92    19    24    1
    93    39    40   ar
    94    39    44    1
    95    40    47    1
    96    45    44    1
    97    46    44    1
    98    73    78   ar
    99    73    80    1
   100    47    48    1
   101    47    50    1
   102    93    94   ar
   103    93    95    1
   104    80    81    1
   105    84    81    1
   106    81    83    1
   107    81    82    1
