@<TRIPOS>MOLECULE
mol_data/opt/m06hf/geoms/mol2/6dd6dd6dd6dd.out
 46 49 0 0 0
SMALL
GASTEIGER

@<TRIPOS>ATOM
      1 C          -3.7944   -1.6378   -1.5258 C.ar    1  LIG1        0.1408
      2 C          -3.0167   -2.2345   -0.5333 C.ar    1  LIG1       -0.0245
      3 C          -2.9803   -1.6218    0.7102 C.ar    1  LIG1       -0.0396
      4 C          -3.7180   -0.4543    0.9014 C.ar    1  LIG1        0.0778
      5 C          -4.4705    0.0615   -0.1649 C.ar    1  LIG1        0.0925
      6 N          -4.4985   -0.5255   -1.3530 N.ar    1  LIG1       -0.2350
      7 H          -2.4020   -2.0339    1.5259 H       1  LIG1        0.0632
      8 H          -2.4703   -3.1429   -0.7413 H       1  LIG1        0.0646
      9 N          -3.8593   -2.7445   -3.8801 N.1     1  LIG1       -0.1893
     10 C          -3.8489   -2.2444   -2.8497 C.1     1  LIG1        0.1191
     11 N          -3.6795    0.7438    3.2004 N.1     1  LIG1       -0.1908
     12 C          -3.7080    0.2075    2.1871 C.1     1  LIG1        0.1013
     13 C          -6.6411    1.2992   -0.4369 C.ar    1  LIG1        0.1500
     14 C          -5.2980    1.2976   -0.0345 C.ar    1  LIG1        0.0387
     15 C          -4.7755    2.4898    0.4510 C.ar    1  LIG1       -0.0303
     16 C          -5.5956    3.6147    0.4976 C.ar    1  LIG1        0.0785
     17 C          -6.9216    3.5126    0.0546 C.ar    1  LIG1        0.0926
     18 N          -7.4211    2.3699   -0.3963 N.ar    1  LIG1       -0.2343
     19 H          -3.7481    2.5579    0.7854 H       1  LIG1        0.0638
     20 N          -7.7712   -0.9037   -1.2403 N.1     1  LIG1       -0.1893
     21 C          -7.2726    0.0708   -0.9022 C.1     1  LIG1        0.1198
     22 N          -4.6498    5.8696    1.3587 N.1     1  LIG1       -0.1908
     23 C          -5.0732    4.8687    0.9922 C.1     1  LIG1        0.1013
     24 C          -9.1357    4.5538    0.6383 C.ar    1  LIG1        0.1500
     25 C          -7.8595    4.6731    0.0696 C.ar    1  LIG1        0.0387
     26 C          -7.5240    5.8964   -0.4972 C.ar    1  LIG1       -0.0303
     27 C          -8.4637    6.9239   -0.4834 C.ar    1  LIG1        0.0785
     28 C          -9.7183    6.6982    0.1014 C.ar    1  LIG1        0.0926
     29 N         -10.0303    5.5312    0.6508 N.ar    1  LIG1       -0.2343
     30 H          -6.5537    6.0596   -0.9485 H       1  LIG1        0.0638
     31 N          -9.8356    2.3465    1.8272 N.1     1  LIG1       -0.1893
     32 C          -9.5368    3.3156    1.2943 C.1     1  LIG1        0.1198
     33 N          -7.8789    9.2108   -1.5562 N.1     1  LIG1       -0.1908
     34 C          -8.1363    8.2047   -1.0692 C.1     1  LIG1        0.1013
     35 C         -11.3998    8.0724    1.3664 C.ar    1  LIG1        0.1493
     36 C         -10.7715    7.7534    0.1546 C.ar    1  LIG1        0.0387
     37 C         -11.1833    8.4376   -0.9839 C.ar    1  LIG1       -0.0309
     38 C         -12.1968    9.3829   -0.8565 C.ar    1  LIG1        0.0705
     39 C         -12.7622    9.6194    0.3997 C.ar    1  LIG1        0.0464
     40 N         -12.3637    8.9772    1.4884 N.ar    1  LIG1       -0.2427
     41 H         -10.7418    8.2378   -1.9517 H       1  LIG1        0.0638
     42 H         -13.5544   10.3473    0.5178 H       1  LIG1        0.0843
     43 N         -10.6096    6.9410    3.5749 N.1     1  LIG1       -0.1893
     44 C         -10.9714    7.4280    2.6029 C.1     1  LIG1        0.1198
     45 N         -13.0602   10.6781   -2.9300 N.1     1  LIG1       -0.1908
     46 C         -12.6759   10.1086   -2.0119 C.1     1  LIG1        0.1007
@<TRIPOS>BOND
     1     9    10    3
     2    45    46    3
     3    10     1    1
     4    46    38    1
     5    41    37    1
     6    33    34    3
     7     1     6   ar
     8     1     2   ar
     9     6     5   ar
    10    20    21    3
    11    34    27    1
    12    37    38   ar
    13    37    36   ar
    14    30    26    1
    15    21    13    1
    16    38    39   ar
    17     8     2    1
    18     2     3   ar
    19    26    27   ar
    20    26    25   ar
    21    27    28   ar
    22    13    18   ar
    23    13    14   ar
    24    18    17   ar
    25     5    14    1
    26     5     4   ar
    27    14    15   ar
    28    17    25    1
    29    17    16   ar
    30    25    24   ar
    31    28    36    1
    32    28    29   ar
    33    36    35   ar
    34    39    42    1
    35    39    40   ar
    36    15    16   ar
    37    15    19    1
    38    16    23    1
    39    24    29   ar
    40    24    32    1
    41     3     4   ar
    42     3     7    1
    43     4    12    1
    44    23    22    3
    45    32    31    3
    46    35    40   ar
    47    35    44    1
    48    12    11    3
    49    44    43    3
