@<TRIPOS>MOLECULE
mol_data/opt/m06hf/geoms/mol2/6dd6dd6dd.out
 35 37 0 0 0
SMALL
GASTEIGER

@<TRIPOS>ATOM
      1 C          -4.2511   -1.8941   -1.1572 C.ar    1  LIG1        0.1408
      2 C          -3.1506   -2.2280   -0.3678 C.ar    1  LIG1       -0.0245
      3 C          -2.7451   -1.3119    0.5908 C.ar    1  LIG1       -0.0396
      4 C          -3.4540   -0.1177    0.7134 C.ar    1  LIG1        0.0778
      5 C          -4.5485    0.1194   -0.1318 C.ar    1  LIG1        0.0925
      6 N          -4.9305   -0.7584   -1.0486 N.ar    1  LIG1       -0.2350
      7 H          -1.9036   -1.5100    1.2404 H       1  LIG1        0.0632
      8 H          -2.6440   -3.1717   -0.5108 H       1  LIG1        0.0646
      9 N          -5.0149   -3.5797   -2.9870 N.1     1  LIG1       -0.1893
     10 C          -4.6995   -2.8253   -2.1846 C.1     1  LIG1        0.1191
     11 N          -2.7464    1.6364    2.4871 N.1     1  LIG1       -0.1908
     12 C          -3.0671    0.8564    1.7100 C.1     1  LIG1        0.1013
     13 C          -6.7574    1.3041    0.0693 C.ar    1  LIG1        0.1500
     14 C          -5.3618    1.3685   -0.0446 C.ar    1  LIG1        0.0387
     15 C          -4.7832    2.6305   -0.0921 C.ar    1  LIG1       -0.0303
     16 C          -5.6081    3.7513   -0.0378 C.ar    1  LIG1        0.0785
     17 C          -6.9961    3.5770    0.0634 C.ar    1  LIG1        0.0926
     18 N          -7.5437    2.3700    0.1175 N.ar    1  LIG1       -0.2343
     19 H          -3.7107    2.7537   -0.1725 H       1  LIG1        0.0638
     20 N          -7.9464   -1.0003    0.2979 N.1     1  LIG1       -0.1893
     21 C          -7.4276    0.0145    0.1812 C.1     1  LIG1        0.1198
     22 N          -4.5659    6.1233   -0.1331 N.1     1  LIG1       -0.1908
     23 C          -5.0275    5.0749   -0.0792 C.1     1  LIG1        0.1013
     24 C          -8.9009    4.8021    1.1512 C.ar    1  LIG1        0.1493
     25 C          -7.9390    4.7310    0.1347 C.ar    1  LIG1        0.0387
     26 C          -7.9173    5.7572   -0.8038 C.ar    1  LIG1       -0.0309
     27 C          -8.8527    6.7807   -0.6858 C.ar    1  LIG1        0.0705
     28 C          -9.7750    6.7516    0.3638 C.ar    1  LIG1        0.0464
     29 N          -9.7910    5.7808    1.2656 N.ar    1  LIG1       -0.2427
     30 H          -7.2022    5.7627   -1.6163 H       1  LIG1        0.0638
     31 H         -10.5119    7.5370    0.4709 H       1  LIG1        0.0843
     32 N          -8.9500    3.0063    3.0368 N.1     1  LIG1       -0.1893
     33 C          -8.9389    3.7862    2.1973 C.1     1  LIG1        0.1198
     34 N          -8.9105    8.7227   -2.4022 N.1     1  LIG1       -0.1908
     35 C          -8.8826    7.8649   -1.6423 C.1     1  LIG1        0.1007
@<TRIPOS>BOND
     1     9    10    3
     2    34    35    3
     3    10     1    1
     4    35    27    1
     5    30    26    1
     6     1     6   ar
     7     1     2   ar
     8     6     5   ar
     9    26    27   ar
    10    26    25   ar
    11    27    28   ar
    12     8     2    1
    13     2     3   ar
    14    19    15    1
    15    22    23    3
    16     5    14    1
    17     5     4   ar
    18    15    14   ar
    19    15    16   ar
    20    23    16    1
    21    14    13   ar
    22    16    17   ar
    23    17    18   ar
    24    17    25    1
    25    13    18   ar
    26    13    21    1
    27    25    24   ar
    28    21    20    3
    29    28    31    1
    30    28    29   ar
    31     3     4   ar
    32     3     7    1
    33     4    12    1
    34    24    29   ar
    35    24    33    1
    36    12    11    3
    37    33    32    3
