@<TRIPOS>MOLECULE
mol_data/opt/m06hf/geoms/mol2/6dd6di-13af12fh-.out
 45 48 0 0 0
SMALL
GASTEIGER

@<TRIPOS>ATOM
      1 C          -4.4214   -2.0593    0.6319 C.ar    1  LIG1        0.1408
      2 C          -3.2281   -2.2839   -0.0543 C.ar    1  LIG1       -0.0245
      3 C          -2.6881   -1.2188   -0.7585 C.ar    1  LIG1       -0.0396
      4 C          -3.3611    0.0017   -0.7445 C.ar    1  LIG1        0.0778
      5 C          -4.5576    0.1268   -0.0172 C.ar    1  LIG1        0.0925
      6 N          -5.0641   -0.8989    0.6587 N.ar    1  LIG1       -0.2350
      7 H          -1.7698   -1.3222   -1.3202 H       1  LIG1        0.0632
      8 H          -2.7576   -3.2557   -0.0300 H       1  LIG1        0.0646
      9 N          -5.4413   -4.0331    1.9899 N.1     1  LIG1       -0.1893
     10 C          -5.0156   -3.1514    1.3948 C.1     1  LIG1        0.1191
     11 N          -2.3811    1.9825   -2.1021 N.1     1  LIG1       -0.1908
     12 C          -2.8288    1.1132   -1.5027 C.1     1  LIG1        0.1013
     13 C          -6.7078    1.4075   -0.1944 C.ar    1  LIG1        0.1499
     14 C          -5.3301    1.3969    0.0321 C.ar    1  LIG1        0.0378
     15 C          -4.7392    2.6248    0.3306 C.ar    1  LIG1       -0.0448
     16 C          -5.4925    3.7878    0.4064 C.ar    1  LIG1       -0.0223
     17 C          -6.8789    3.6744    0.1675 C.ar    1  LIG1        0.0916
     18 N          -7.4480    2.5004   -0.1308 N.ar    1  LIG1       -0.2340
     19 H          -3.6735    2.6733    0.5226 H       1  LIG1        0.0628
     20 N          -7.9796   -0.7543   -0.9042 N.1     1  LIG1       -0.1893
     21 C          -7.4166    0.1874   -0.5731 C.1     1  LIG1        0.1198
     22 C          -4.8317    5.1058    0.7383 C.3     1  LIG1       -0.0376
     23 H          -5.2565    5.5194    1.6544 H       1  LIG1        0.0278
     24 H          -4.9867    5.8161   -0.0755 H       1  LIG1        0.0278
     25 H          -3.7620    4.9578    0.8774 H       1  LIG1        0.0278
     26 C          -7.8262    4.7935    0.2145 C.ar    1  LIG1        0.0693
     27 C          -7.7307    6.1609    0.4616 C.ar    1  LIG1        0.0074
     28 C          -9.0321    6.6923    0.3559 C.ar    1  LIG1        0.1458
     29 C          -9.8875    5.6404    0.0473 C.ar    1  LIG1        0.1282
     30 N          -9.1341    4.5122   -0.0332 N.ar    1  LIG1       -0.3475
     31 H          -9.4647    3.5801   -0.2432 H       1  LIG1        0.1661
     32 H          -6.8589    6.7438    0.6934 H       1  LIG1        0.0676
     33 O          -9.3246    8.0021    0.5420 O.3     1  LIG1       -0.5045
     34 H         -10.2614    8.1836    0.3751 H       1  LIG1        0.2922
     35 C         -11.3197    5.6244   -0.1650 C.ar    1  LIG1        0.1975
     36 C         -12.2630    6.5973   -0.2048 C.ar    1  LIG1        0.1854
     37 C         -13.5258    5.9616   -0.4429 C.ar    1  LIG1        0.1057
     38 C         -13.2532    4.6346   -0.5356 C.ar    1  LIG1        0.1170
     39 O         -11.9312    4.4251   -0.3693 O.2     1  LIG1       -0.4556
     40 H         -13.8637    3.7660   -0.7089 H       1  LIG1        0.1050
     41 O         -12.1023    7.9366   -0.0589 O.3     1  LIG1       -0.5020
     42 H         -12.9837    8.3356   -0.1367 H       1  LIG1        0.2924
     43 N         -14.7111    6.7435   -0.5332 N.pl3   1  LIG1       -0.3527
     44 H         -15.1603    6.6586   -1.4384 H       1  LIG1        0.1425
     45 H         -15.3794    6.5132    0.1943 H       1  LIG1        0.1425
@<TRIPOS>BOND
     1    11    12    3
     2    12     4    1
     3    44    43    1
     4     7     3    1
     5    20    21    3
     6     3     4   ar
     7     3     2   ar
     8     4     5   ar
     9    40    38    1
    10    21    13    1
    11    38    37   ar
    12    38    39   ar
    13    43    37    1
    14    43    45    1
    15    37    36   ar
    16    39    35   ar
    17    31    30    1
    18    36    35   ar
    19    36    41    1
    20    13    18   ar
    21    13    14   ar
    22    35    29    1
    23    42    41    1
    24    18    17   ar
    25    24    22    1
    26     2     8    1
    27     2     1   ar
    28    30    29   ar
    29    30    26   ar
    30     5    14    1
    31     5     6   ar
    32    14    15   ar
    33    29    28   ar
    34    17    26    1
    35    17    16   ar
    36    26    27   ar
    37    15    16   ar
    38    15    19    1
    39    28    27   ar
    40    28    33    1
    41    34    33    1
    42    16    22    1
    43    27    32    1
    44     1     6   ar
    45     1    10    1
    46    22    25    1
    47    22    23    1
    48    10     9    3
