@<TRIPOS>MOLECULE
mol_data/opt/m06hf/geoms/mol2/6dd6dd.out
 24 25 0 0 0
SMALL
GASTEIGER

@<TRIPOS>ATOM
      1 C          -4.4730   -1.9929   -0.6057 C.ar    1  LIG1        0.1408
      2 C          -3.1540   -2.1237   -0.1710 C.ar    1  LIG1       -0.0245
      3 C          -2.5419   -1.0030    0.3687 C.ar    1  LIG1       -0.0396
      4 C          -3.2716    0.1822    0.4463 C.ar    1  LIG1        0.0778
      5 C          -4.5939    0.2081   -0.0237 C.ar    1  LIG1        0.0925
      6 N          -5.1739   -0.8671   -0.5399 N.ar    1  LIG1       -0.2350
      7 H          -1.5240   -1.0358    0.7324 H       1  LIG1        0.0632
      8 H          -2.6422   -3.0711   -0.2574 H       1  LIG1        0.0646
      9 N          -5.6350   -4.0785   -1.6424 N.1     1  LIG1       -0.1893
     10 C          -5.1470   -3.1482   -1.1855 C.1     1  LIG1        0.1191
     11 N          -2.1785    2.3004    1.4676 N.1     1  LIG1       -0.1908
     12 C          -2.6685    1.3640    1.0222 C.1     1  LIG1        0.1013
     13 C          -6.7083    1.4150    0.6069 C.ar    1  LIG1        0.1493
     14 C          -5.4295    1.4435    0.0347 C.ar    1  LIG1        0.0387
     15 C          -4.9886    2.6527   -0.4919 C.ar    1  LIG1       -0.0309
     16 C          -5.8411    3.7507   -0.4326 C.ar    1  LIG1        0.0705
     17 C          -7.1033    3.6101    0.1518 C.ar    1  LIG1        0.0464
     18 N          -7.5221    2.4627    0.6654 N.ar    1  LIG1       -0.2427
     19 H          -4.0114    2.7431   -0.9486 H       1  LIG1        0.0638
     20 H          -7.7808    4.4524    0.2041 H       1  LIG1        0.0843
     21 N          -7.5748   -0.7571    1.7535 N.1     1  LIG1       -0.1893
     22 C          -7.2016    0.1927    1.2320 C.1     1  LIG1        0.1198
     23 N          -5.1269    6.0413   -1.4143 N.1     1  LIG1       -0.1908
     24 C          -5.4397    5.0281   -0.9784 C.1     1  LIG1        0.1007
@<TRIPOS>BOND
     1     9    10    3
     2    23    24    3
     3    10     1    1
     4    24    16    1
     5    19    15    1
     6     1     6   ar
     7     1     2   ar
     8     6     5   ar
     9    15    16   ar
    10    15    14   ar
    11    16    17   ar
    12     8     2    1
    13     2     3   ar
    14     5    14    1
    15     5     4   ar
    16    14    13   ar
    17    17    20    1
    18    17    18   ar
    19     3     4   ar
    20     3     7    1
    21     4    12    1
    22    13    18   ar
    23    13    22    1
    24    12    11    3
    25    22    21    3
