@<TRIPOS>MOLECULE
mol_data/opt/m06hf/geoms/mol2/6de6de6de6de.out
 50 53 0 0 0
SMALL
GASTEIGER

@<TRIPOS>ATOM
      1 C          -3.6546   -1.4218   -1.9326 C.ar    1  LIG1        0.1408
      2 C          -2.9783   -2.1287   -0.9390 C.ar    1  LIG1       -0.0246
      3 C          -3.0471   -1.6416    0.3570 C.ar    1  LIG1       -0.0416
      4 C          -3.7801   -0.4803    0.6112 C.ar    1  LIG1        0.0508
      5 C          -4.4217    0.1473   -0.4714 C.ar    1  LIG1        0.0905
      6 N          -4.3574   -0.3173   -1.7117 N.ar    1  LIG1       -0.2350
      7 H          -2.5524   -2.1480    1.1743 H       1  LIG1        0.0631
      8 H          -2.4277   -3.0243   -1.1878 H       1  LIG1        0.0646
      9 N          -3.5029   -2.2859   -4.3840 N.1     1  LIG1       -0.1893
     10 C          -3.5908   -1.8925   -3.3112 C.1     1  LIG1        0.1191
     11 C          -3.8922    0.0391    1.9497 C.1     1  LIG1       -0.0675
     12 C          -3.9835    0.4612    3.0704 C.1     1  LIG1       -0.1138
     13 H          -4.0795    0.8359    4.0645 H       1  LIG1        0.1232
     14 C          -6.5770    1.4300   -0.6649 C.ar    1  LIG1        0.1500
     15 C          -5.2323    1.3870   -0.2817 C.ar    1  LIG1        0.0386
     16 C          -4.6833    2.5424    0.2593 C.ar    1  LIG1       -0.0323
     17 C          -5.4734    3.6851    0.3803 C.ar    1  LIG1        0.0514
     18 C          -6.8112    3.6115   -0.0438 C.ar    1  LIG1        0.0906
     19 N          -7.3440    2.5061   -0.5463 N.ar    1  LIG1       -0.2344
     20 H          -3.6516    2.5631    0.5846 H       1  LIG1        0.0638
     21 N          -7.7143   -0.7169   -1.6014 N.1     1  LIG1       -0.1893
     22 C          -7.2192    0.2358   -1.2008 C.1     1  LIG1        0.1198
     23 C          -4.9334    4.8957    0.9431 C.1     1  LIG1       -0.0675
     24 C          -4.4765    5.8994    1.4191 C.1     1  LIG1       -0.1138
     25 H          -4.0794    6.7909    1.8494 H       1  LIG1        0.1232
     26 C          -8.8923    4.7177    0.8310 C.ar    1  LIG1        0.1500
     27 C          -7.7247    4.7876    0.0651 C.ar    1  LIG1        0.0386
     28 C          -7.4637    5.9804   -0.5957 C.ar    1  LIG1       -0.0323
     29 C          -8.3700    7.0354   -0.4899 C.ar    1  LIG1        0.0514
     30 C          -9.5191    6.8467    0.2984 C.ar    1  LIG1        0.0906
     31 N          -9.7603    5.7139    0.9450 N.ar    1  LIG1       -0.2344
     32 H          -6.5671    6.0971   -1.1899 H       1  LIG1        0.0638
     33 N          -9.3988    2.5654    2.2065 N.1     1  LIG1       -0.1893
     34 C          -9.1909    3.5100    1.5918 C.1     1  LIG1        0.1198
     35 C          -8.1133    8.2845   -1.1593 C.1     1  LIG1       -0.0675
     36 C          -7.8849    9.3197   -1.7237 C.1     1  LIG1       -0.1138
     37 H          -7.6840   10.2414   -2.2203 H       1  LIG1        0.1232
     38 C         -10.9166    8.3658    1.7345 C.ar    1  LIG1        0.1493
     39 C         -10.5412    7.9220    0.4627 C.ar    1  LIG1        0.0386
     40 C         -11.1768    8.4963   -0.6328 C.ar    1  LIG1       -0.0329
     41 C         -12.1575    9.4618   -0.4136 C.ar    1  LIG1        0.0435
     42 C         -12.4592    9.8191    0.9075 C.ar    1  LIG1        0.0444
     43 N         -11.8471    9.2891    1.9556 N.ar    1  LIG1       -0.2428
     44 H         -10.9240    8.1936   -1.6402 H       1  LIG1        0.0638
     45 H         -13.2206   10.5618    1.1076 H       1  LIG1        0.0842
     46 N          -9.6764    7.4588    3.8383 N.1     1  LIG1       -0.1893
     47 C         -10.2377    7.8442    2.9167 C.1     1  LIG1        0.1198
     48 C         -12.8578   10.0785   -1.5109 C.1     1  LIG1       -0.0681
     49 C         -13.4428   10.5915   -2.4260 C.1     1  LIG1       -0.1139
     50 H         -13.9634   11.0432   -3.2398 H       1  LIG1        0.1232
@<TRIPOS>BOND
     1     9    10    3
     2    10     1    1
     3    50    49    1
     4    49    48    3
     5    37    36    1
     6     1     6   ar
     7     1     2   ar
     8    36    35    3
     9     6     5   ar
    10    44    40    1
    11    21    22    3
    12    48    41    1
    13    22    14    1
    14    32    28    1
    15     8     2    1
    16    35    29    1
    17     2     3   ar
    18    14    19   ar
    19    14    15   ar
    20    40    41   ar
    21    40    39   ar
    22    28    29   ar
    23    28    27   ar
    24    19    18   ar
    25    29    30   ar
    26     5    15    1
    27     5     4   ar
    28    41    42   ar
    29    15    16   ar
    30    18    27    1
    31    18    17   ar
    32    27    26   ar
    33    16    17   ar
    34    16    20    1
    35    30    39    1
    36    30    31   ar
    37     3     4   ar
    38     3     7    1
    39    17    23    1
    40    39    38   ar
    41     4    11    1
    42    26    31   ar
    43    26    34    1
    44    42    45    1
    45    42    43   ar
    46    23    24    3
    47    24    25    1
    48    34    33    3
    49    38    43   ar
    50    38    47    1
    51    11    12    3
    52    47    46    3
    53    12    13    1
