@<TRIPOS>MOLECULE
mol_data/opt/m06hf/geoms/mol2/6de6de.out
 26 27 0 0 0
SMALL
GASTEIGER

@<TRIPOS>ATOM
      1 C          -4.5156   -1.9564   -0.7278 C.ar    1  LIG1        0.1408
      2 C          -3.1695   -2.0999   -0.3954 C.ar    1  LIG1       -0.0246
      3 C          -2.5185   -0.9962    0.1333 C.ar    1  LIG1       -0.0416
      4 C          -3.2263    0.1950    0.3081 C.ar    1  LIG1        0.0508
      5 C          -4.5828    0.2242   -0.0652 C.ar    1  LIG1        0.0905
      6 N          -5.2048   -0.8328   -0.5720 N.ar    1  LIG1       -0.2350
      7 H          -1.4769   -1.0435    0.4191 H       1  LIG1        0.0631
      8 H          -2.6670   -3.0435   -0.5498 H       1  LIG1        0.0646
      9 N          -5.7526   -4.0065   -1.7508 N.1     1  LIG1       -0.1893
     10 C          -5.2323   -3.0919   -1.2970 C.1     1  LIG1        0.1191
     11 C          -2.5738    1.3463    0.8774 C.1     1  LIG1       -0.0675
     12 C          -2.0093    2.2939    1.3529 C.1     1  LIG1       -0.1138
     13 H          -1.5167    3.1379    1.7795 H       1  LIG1        0.1232
     14 C          -6.6357    1.4175    0.7675 C.ar    1  LIG1        0.1493
     15 C          -5.4114    1.4556    0.0916 C.ar    1  LIG1        0.0386
     16 C          -5.0136    2.6754   -0.4460 C.ar    1  LIG1       -0.0329
     17 C          -5.8450    3.7834   -0.2987 C.ar    1  LIG1        0.0435
     18 C          -7.0536    3.6228    0.3922 C.ar    1  LIG1        0.0444
     19 N          -7.4363    2.4686    0.9163 N.ar    1  LIG1       -0.2428
     20 H          -4.0754    2.7640   -0.9773 H       1  LIG1        0.0638
     21 H          -7.7196    4.4662    0.5202 H       1  LIG1        0.0842
     22 N          -7.4279   -0.7725    1.9349 N.1     1  LIG1       -0.1893
     23 C          -7.0846    0.1840    1.4047 C.1     1  LIG1        0.1198
     24 C          -5.4841    5.0677   -0.8414 C.1     1  LIG1       -0.0681
     25 C          -5.1866    6.1407   -1.2913 C.1     1  LIG1       -0.1139
     26 H          -4.9258    7.0932   -1.6921 H       1  LIG1        0.1232
@<TRIPOS>BOND
     1     9    10    3
     2    26    25    1
     3    10     1    1
     4    25    24    3
     5    20    16    1
     6    24    17    1
     7     1     6   ar
     8     1     2   ar
     9     6     5   ar
    10     8     2    1
    11    16    17   ar
    12    16    15   ar
    13     2     3   ar
    14    17    18   ar
    15     5    15    1
    16     5     4   ar
    17    15    14   ar
    18     3     4   ar
    19     3     7    1
    20     4    11    1
    21    18    21    1
    22    18    19   ar
    23    14    19   ar
    24    14    23    1
    25    11    12    3
    26    12    13    1
    27    23    22    3
