@<TRIPOS>MOLECULE
mol_data/opt/m06hf/geoms/mol2/6de6de6de.out
 38 40 0 0 0
SMALL
GASTEIGER

@<TRIPOS>ATOM
      1 C          -4.2849   -1.7873   -1.4347 C.ar    1  LIG1        0.1408
      2 C          -3.1555   -2.1610   -0.7075 C.ar    1  LIG1       -0.0246
      3 C          -2.7165   -1.3006    0.2865 C.ar    1  LIG1       -0.0416
      4 C          -3.4121   -0.1109    0.5141 C.ar    1  LIG1        0.0508
      5 C          -4.5359    0.1638   -0.2860 C.ar    1  LIG1        0.0905
      6 N          -4.9573   -0.6601   -1.2367 N.ar    1  LIG1       -0.2350
      7 H          -1.8527   -1.5366    0.8926 H       1  LIG1        0.0631
      8 H          -2.6547   -3.0941   -0.9223 H       1  LIG1        0.0646
      9 N          -5.1112   -3.3858   -3.3163 N.1     1  LIG1       -0.1893
     10 C          -4.7707   -2.6667   -2.4913 C.1     1  LIG1        0.1191
     11 C          -2.9955    0.7884    1.5595 C.1     1  LIG1       -0.0675
     12 C          -2.6397    1.5227    2.4414 C.1     1  LIG1       -0.1138
     13 H          -2.3352    2.1726    3.2305 H       1  LIG1        0.1232
     14 C          -6.7163    1.3617    0.0989 C.ar    1  LIG1        0.1500
     15 C          -5.3337    1.4130   -0.1092 C.ar    1  LIG1        0.0386
     16 C          -4.7450    2.6694   -0.1729 C.ar    1  LIG1       -0.0323
     17 C          -5.5386    3.8090   -0.0442 C.ar    1  LIG1        0.0514
     18 C          -6.9202    3.6360    0.1535 C.ar    1  LIG1        0.0906
     19 N          -7.4824    2.4367    0.2265 N.ar    1  LIG1       -0.2344
     20 H          -3.6783    2.7714   -0.3211 H       1  LIG1        0.0638
     21 N          -7.9112   -0.9401    0.3345 N.1     1  LIG1       -0.1893
     22 C          -7.3924    0.0747    0.2186 C.1     1  LIG1        0.1198
     23 C          -4.9393    5.1179   -0.0946 C.1     1  LIG1       -0.0675
     24 C          -4.4206    6.2004   -0.1407 C.1     1  LIG1       -0.1138
     25 H          -3.9652    7.1638   -0.1776 H       1  LIG1        0.1232
     26 C          -8.6889    4.8975    1.4172 C.ar    1  LIG1        0.1493
     27 C          -7.8420    4.7992    0.3089 C.ar    1  LIG1        0.0386
     28 C          -7.9116    5.8091   -0.6448 C.ar    1  LIG1       -0.0329
     29 C          -8.8210    6.8490   -0.4620 C.ar    1  LIG1        0.0435
     30 C          -9.6286    6.8353    0.6834 C.ar    1  LIG1        0.0444
     31 N          -9.5589    5.8853    1.6033 N.ar    1  LIG1       -0.2428
     32 H          -7.2772    5.7859   -1.5209 H       1  LIG1        0.0638
     33 H         -10.3477    7.6269    0.8488 H       1  LIG1        0.0842
     34 N          -8.5204    3.1466    3.3391 N.1     1  LIG1       -0.1893
     35 C          -8.6114    3.9053    2.4846 C.1     1  LIG1        0.1198
     36 C          -8.9404    7.9164   -1.4214 C.1     1  LIG1       -0.0681
     37 C          -9.0425    8.8089   -2.2184 C.1     1  LIG1       -0.1139
     38 H          -9.1359    9.6000   -2.9269 H       1  LIG1        0.1232
@<TRIPOS>BOND
     1     9    10    3
     2    38    37    1
     3    10     1    1
     4    37    36    3
     5    32    28    1
     6     1     6   ar
     7     1     2   ar
     8    36    29    1
     9     6     5   ar
    10     8     2    1
    11     2     3   ar
    12    28    29   ar
    13    28    27   ar
    14    29    30   ar
    15    20    16    1
    16     5    15    1
    17     5     4   ar
    18    25    24    1
    19    16    15   ar
    20    16    17   ar
    21    24    23    3
    22    15    14   ar
    23    23    17    1
    24    17    18   ar
    25    14    22    1
    26    14    19   ar
    27    18    19   ar
    28    18    27    1
    29    22    21    3
    30     3     4   ar
    31     3     7    1
    32    27    26   ar
    33     4    11    1
    34    30    33    1
    35    30    31   ar
    36    26    31   ar
    37    26    35    1
    38    11    12    3
    39    12    13    1
    40    35    34    3
