@<TRIPOS>MOLECULE
mol_data/opt/m06hf/geoms/mol2/6df12ee12ae13ai-6hf4he-4he-4dd-.out
 96 103 0 0 0
SMALL
GASTEIGER

@<TRIPOS>ATOM
      1 C          -4.9738   -1.7786   -2.2139 C.ar    1  LIG1        0.1411
      2 C          -3.6209   -2.1142   -2.1163 C.ar    1  LIG1       -0.0223
      3 C          -2.7714   -1.1757   -1.5632 C.ar    1  LIG1       -0.0152
      4 C          -3.2780    0.0509   -1.1223 C.ar    1  LIG1        0.1459
      5 C          -4.6581    0.2862   -1.2767 C.ar    1  LIG1        0.1499
      6 N          -5.4687   -0.6226   -1.8131 N.ar    1  LIG1       -0.2295
      7 H          -1.7131   -1.3596   -1.4406 H       1  LIG1        0.0655
      8 H          -3.2664   -3.0752   -2.4597 H       1  LIG1        0.0647
      9 N          -6.6995   -3.4647   -3.1965 N.1     1  LIG1       -0.1893
     10 C          -5.9374   -2.7227   -2.7676 C.1     1  LIG1        0.1191
     11 O          -2.4084    0.8874   -0.5403 O.3     1  LIG1       -0.5045
     12 H          -2.7224    1.8018   -0.4752 H       1  LIG1        0.2922
     13 C          -5.3555    1.5018   -0.8061 C.ar    1  LIG1        0.1741
     14 C          -5.0448    2.8277   -0.6693 C.ar    1  LIG1        0.0881
     15 C          -6.2406    3.4765   -0.1801 C.ar    1  LIG1        0.0895
     16 C          -7.1707    2.4803   -0.0754 C.ar    1  LIG1        0.1872
     17 O          -6.6353    1.3083   -0.4447 O.2     1  LIG1       -0.4475
     18 C          -3.8060    3.4669   -0.9848 C.1     1  LIG1       -0.0646
     19 C          -2.7481    3.9792   -1.2411 C.1     1  LIG1       -0.1138
     20 H          -1.8210    4.4481   -1.4811 H       1  LIG1        0.1232
     21 C          -6.4222    4.8613    0.1106 C.1     1  LIG1       -0.0645
     22 C          -6.5815    6.0262    0.3577 C.1     1  LIG1       -0.1138
     23 H          -6.7160    7.0605    0.5769 H       1  LIG1        0.1232
     24 C          -8.5664    2.4609    0.3112 C.ar    1  LIG1        0.1731
     25 C          -9.4494    3.4156    0.7030 C.ar    1  LIG1        0.0034
     26 C         -10.7008    2.7325    0.8951 C.ar    1  LIG1        0.0725
     27 C         -10.4647    1.4126    0.5990 C.ar    1  LIG1        0.1672
     28 O          -9.1765    1.2524    0.2510 O.2     1  LIG1       -0.4490
     29 H          -9.2531    4.4652    0.8368 H       1  LIG1        0.0669
     30 C         -11.9453    3.3001    1.3123 C.1     1  LIG1       -0.0658
     31 C         -12.9870    3.7867    1.6632 C.1     1  LIG1       -0.1138
     32 H         -13.9074    4.2208    1.9788 H       1  LIG1        0.1232
     33 C         -11.2839    0.2199    0.5769 C.ar    1  LIG1        0.0840
     34 C         -12.6479    0.0383    0.7209 C.ar    1  LIG1       -0.0298
     35 C         -12.9090   -1.3447    0.5732 C.ar    1  LIG1       -0.0244
     36 C         -11.6824   -1.9631    0.3466 C.ar    1  LIG1        0.0533
     37 N         -10.7191   -0.9972    0.3450 N.ar    1  LIG1       -0.3514
     38 H          -9.7347   -1.1847    0.1811 H       1  LIG1        0.1660
     39 H         -13.3683    0.8207    0.8943 H       1  LIG1        0.0642
     40 C         -14.2728   -1.9918    0.6216 C.3     1  LIG1       -0.0377
     41 H         -14.5239   -2.3217    1.6320 H       1  LIG1        0.0278
     42 H         -14.3155   -2.8532   -0.0461 H       1  LIG1        0.0278
     43 H         -15.0260   -1.2706    0.3042 H       1  LIG1        0.0278
     44 C         -10.2191   -3.8181   -0.5677 C.ar    1  LIG1        0.1263
     45 C         -11.3392   -3.3882    0.1936 C.ar    1  LIG1        0.0415
     46 C         -12.0728   -4.3705    0.8350 C.ar    1  LIG1       -0.0056
     47 C         -11.7098   -5.7200    0.7481 C.ar    1  LIG1        0.1435
     48 C         -10.5722   -6.0333   -0.0009 C.ar    1  LIG1        0.1162
     49 N          -9.8672   -5.0844   -0.6372 N.ar    1  LIG1       -0.2281
     50 H         -12.9128   -4.1175    1.4678 H       1  LIG1        0.0662
     51 N          -9.4001   -2.8905   -1.2277 N.pl3   1  LIG1       -0.3426
     52 H          -8.6794   -3.3612   -1.7669 H       1  LIG1        0.1437
     53 H          -9.9162   -2.2278   -1.7986 H       1  LIG1        0.1437
     54 O         -12.4336   -6.6191    1.4530 O.3     1  LIG1       -0.5046
     55 H         -12.4871   -7.4657    0.9402 H       1  LIG1        0.2922
     56 C         -10.7628   -8.5625   -0.2751 C.ar    1  LIG1        0.0346
     57 C         -10.1555   -9.8172   -0.2913 C.ar    1  LIG1       -0.0315
     58 C          -9.9923   -7.4093   -0.0735 C.ar    1  LIG1        0.0258
     59 C          -8.7794   -9.9526   -0.1282 C.ar    1  LIG1        0.0011
     60 H         -10.7550  -10.7075   -0.4468 H       1  LIG1        0.0643
     61 C          -8.6106   -7.5441    0.0430 C.ar    1  LIG1       -0.0347
     62 C          -7.9949   -8.7956    0.0258 C.ar    1  LIG1        0.0332
     63 H          -8.0125   -6.6496    0.1521 H       1  LIG1        0.0637
     64 N         -12.1685   -8.4381   -0.4366 N.pl3   1  LIG1       -0.3574
     65 H         -12.4104   -7.7566   -1.1537 H       1  LIG1        0.1423
     66 H         -12.6258   -9.3228   -0.6249 H       1  LIG1        0.1423
     67 C          -6.5599   -8.8843    0.1626 C.1     1  LIG1       -0.0690
     68 C          -5.3658   -8.9470    0.2796 C.1     1  LIG1       -0.1139
     69 H          -4.3077   -9.0139    0.3814 H       1  LIG1        0.1232
     70 C          -8.2900  -12.1346   -1.2801 C.ar    1  LIG1        0.0330
     71 C          -7.7206  -13.4142   -1.2538 C.ar    1  LIG1       -0.0315
     72 C          -8.1663  -11.3147   -0.1426 C.ar    1  LIG1        0.0052
     73 C          -7.0190  -13.8712   -0.1472 C.ar    1  LIG1        0.0005
     74 H          -7.8317  -14.0553   -2.1202 H       1  LIG1        0.0643
     75 C          -7.4649  -11.7788    0.9634 C.ar    1  LIG1       -0.0362
     76 C          -6.8839  -13.0478    0.9850 C.ar    1  LIG1        0.0331
     77 H          -7.3563  -11.1367    1.8279 H       1  LIG1        0.0637
     78 N          -8.9930  -11.7098   -2.3959 N.pl3   1  LIG1       -0.3575
     79 H          -9.0708  -10.7059   -2.4976 H       1  LIG1        0.1423
     80 H          -8.7553  -12.1797   -3.2577 H       1  LIG1        0.1423
     81 C          -6.1433  -13.4658    2.1511 C.1     1  LIG1       -0.0690
     82 C          -5.5357  -13.7949    3.1353 C.1     1  LIG1       -0.1139
     83 H          -4.9952  -14.0866    4.0061 H       1  LIG1        0.1232
     84 C          -5.5661  -15.6419   -1.2186 C.ar    1  LIG1        0.0596
     85 C          -4.9999  -16.9199   -1.2491 C.ar    1  LIG1       -0.0425
     86 C          -6.4107  -15.2340   -0.1768 C.ar    1  LIG1        0.0019
     87 C          -5.2707  -17.8158   -0.2285 C.ar    1  LIG1       -0.0431
     88 H          -4.3495  -17.1930   -2.0681 H       1  LIG1        0.0631
     89 C          -6.6772  -16.1454    0.8461 C.ar    1  LIG1       -0.0354
     90 C          -6.1117  -17.4175    0.8137 C.ar    1  LIG1        0.0524
     91 H          -7.3235  -15.8599    1.6647 H       1  LIG1        0.0637
     92 H          -4.8413  -18.8076   -0.2285 H       1  LIG1        0.0631
     93 N          -4.9633  -14.0589   -3.1894 N.1     1  LIG1       -0.1909
     94 C          -5.2373  -14.7358   -2.3045 C.1     1  LIG1        0.0998
     95 N          -6.6232  -19.0972    2.7284 N.1     1  LIG1       -0.1909
     96 C          -6.4009  -18.3517    1.8851 C.1     1  LIG1        0.0992
@<TRIPOS>BOND
     1    80    78    1
     2     9    10    3
     3    93    94    3
     4    10     1    1
     5    79    78    1
     6     8     2    1
     7    78    70    1
     8    94    84    1
     9     1     2   ar
    10     1     6   ar
    11    74    71    1
    12     2     3   ar
    13    88    85    1
    14     6     5   ar
    15    53    51    1
    16    52    51    1
    17     3     7    1
    18     3     4   ar
    19    20    19    1
    20    70    71   ar
    21    70    72   ar
    22     5     4   ar
    23     5    13    1
    24    71    73   ar
    25    85    84   ar
    26    85    87   ar
    27    19    18    3
    28    51    44    1
    29    84    86   ar
    30    65    64    1
    31     4    11    1
    32    18    14    1
    33    13    14   ar
    34    13    17   ar
    35    14    15   ar
    36    49    44   ar
    37    49    48   ar
    38    66    64    1
    39    44    45   ar
    40    11    12    1
    41    60    57    1
    42    17    16   ar
    43    64    56    1
    44    57    56   ar
    45    57    59   ar
    46    56    58   ar
    47    92    87    1
    48    87    90   ar
    49    15    16   ar
    50    15    21    1
    51    86    73    1
    52    86    89   ar
    53    73    76   ar
    54    72    59    1
    55    72    75   ar
    56    59    62   ar
    57    16    24    1
    58    58    48    1
    59    58    61   ar
    60    42    40    1
    61    48    47   ar
    62    62    61   ar
    63    62    67    1
    64    61    63    1
    65    21    22    3
    66    67    68    3
    67    38    37    1
    68    45    36    1
    69    45    46   ar
    70    28    24   ar
    71    28    27   ar
    72    68    69    1
    73    43    40    1
    74    24    25   ar
    75    37    36   ar
    76    37    33   ar
    77    36    35   ar
    78    22    23    1
    79    35    40    1
    80    35    34   ar
    81    33    27    1
    82    33    34   ar
    83    27    26   ar
    84    40    41    1
    85    25    29    1
    86    25    26   ar
    87    34    39    1
    88    47    46   ar
    89    47    54    1
    90    90    89   ar
    91    90    96    1
    92    46    50    1
    93    89    91    1
    94    26    30    1
    95    55    54    1
    96    75    76   ar
    97    75    77    1
    98    76    81    1
    99    30    31    3
   100    31    32    1
   101    96    95    3
   102    81    82    3
   103    82    83    1
