@<TRIPOS>MOLECULE
mol_data/opt/m06hf/geoms/mol2/6df13ie13ff-6da4fd12hf4ef6de-.out
 93 100 0 0 0
SMALL
GASTEIGER

@<TRIPOS>ATOM
      1 C          -3.6382   -1.0649    2.2456 C.ar    1  LIG1        0.1410
      2 C          -2.5370   -1.5390    1.5327 C.ar    1  LIG1       -0.0223
      3 C          -2.2479   -0.9493    0.3120 C.ar    1  LIG1       -0.0153
      4 C          -3.0516    0.0949   -0.1336 C.ar    1  LIG1        0.1442
      5 C          -4.0998    0.5443    0.6918 C.ar    1  LIG1        0.1301
      6 N          -4.3965   -0.0527    1.8410 N.ar    1  LIG1       -0.2312
      7 H          -1.4359   -1.2907   -0.3152 H       1  LIG1        0.0655
      8 H          -1.9498   -2.3573    1.9234 H       1  LIG1        0.0647
      9 N          -4.2534   -2.2071    4.5025 N.1     1  LIG1       -0.1893
     10 C          -3.9981   -1.6908    3.5113 C.1     1  LIG1        0.1191
     11 O          -2.8191    0.6250   -1.3481 O.3     1  LIG1       -0.5046
     12 H          -3.5507    1.2121   -1.5921 H       1  LIG1        0.2922
     13 C          -4.9741    1.6535    0.2651 C.ar    1  LIG1        0.0732
     14 C          -4.7134    2.8693   -0.3426 C.ar    1  LIG1       -0.0075
     15 C          -5.9763    3.5257   -0.4761 C.ar    1  LIG1        0.0550
     16 C          -6.9417    2.7003    0.0778 C.ar    1  LIG1        0.0829
     17 N          -6.3161    1.5757    0.5154 N.ar    1  LIG1       -0.3504
     18 H          -6.7335    0.8300    1.0586 H       1  LIG1        0.1660
     19 C          -3.3833    3.4901   -0.7055 C.3     1  LIG1       -0.0365
     20 H          -3.3949    4.5331   -0.3900 H       1  LIG1        0.0279
     21 H          -3.2092    3.4733   -1.7845 H       1  LIG1        0.0279
     22 H          -2.5635    2.9761   -0.2059 H       1  LIG1        0.0279
     23 C          -6.1940    4.7981   -1.0934 C.1     1  LIG1       -0.0672
     24 C          -6.3508    5.8649   -1.6243 C.1     1  LIG1       -0.1138
     25 H          -6.5016    6.8120   -2.0870 H       1  LIG1        0.1232
     26 C          -8.3816    2.8732    0.2105 C.ar    1  LIG1        0.1103
     27 C          -9.1359    3.9697    0.5783 C.ar    1  LIG1        0.1863
     28 C         -10.4837    3.5535    0.6066 C.ar    1  LIG1        0.1849
     29 C         -10.5349    2.2121    0.2556 C.ar    1  LIG1        0.0955
     30 N          -9.2454    1.8258    0.0320 N.ar    1  LIG1       -0.3470
     31 H          -8.9614    0.9190   -0.3090 H       1  LIG1        0.1662
     32 O          -8.6740    5.1961    0.9148 O.3     1  LIG1       -0.5019
     33 H          -9.4245    5.8030    0.9414 H       1  LIG1        0.2924
     34 O         -11.5268    4.3913    0.9313 O.3     1  LIG1       -0.5019
     35 H         -11.7707    4.2544    1.8559 H       1  LIG1        0.2924
     36 C         -11.6960   -0.0466    0.2135 C.ar    1  LIG1        0.1499
     37 C         -11.7145    1.3525    0.1384 C.ar    1  LIG1        0.0379
     38 C         -12.9818    1.9244   -0.0542 C.ar    1  LIG1       -0.0478
     39 C         -14.1061    1.1245   -0.1352 C.ar    1  LIG1       -0.0349
     40 C         -13.9654   -0.2702   -0.0291 C.ar    1  LIG1        0.0760
     41 N         -12.7676   -0.8238    0.1290 N.ar    1  LIG1       -0.2356
     42 H         -13.0591    3.0001   -0.1446 H       1  LIG1        0.0626
     43 N          -9.4084   -1.2609    0.5118 N.1     1  LIG1       -0.1893
     44 C         -10.4323   -0.7560    0.3937 C.1     1  LIG1        0.1198
     45 H         -15.0810    1.5588   -0.2875 H       1  LIG1        0.0639
     46 C         -16.4457   -0.8973    0.0937 C.ar    1  LIG1        0.1268
     47 C         -17.4506   -1.8556   -0.0002 C.ar    1  LIG1       -0.0076
     48 C         -15.1001   -1.2368   -0.1242 C.ar    1  LIG1        0.0430
     49 C         -17.1522   -3.1816   -0.3055 C.ar    1  LIG1        0.0401
     50 H         -18.4855   -1.5858    0.1868 H       1  LIG1        0.0662
     51 C         -14.8095   -2.5669   -0.4213 C.ar    1  LIG1       -0.0310
     52 C         -15.8065   -3.5336   -0.5183 C.ar    1  LIG1        0.0633
     53 H         -13.7759   -2.8445   -0.5770 H       1  LIG1        0.0638
     54 O         -16.7533    0.3824    0.4230 O.3     1  LIG1       -0.5061
     55 H         -17.6935    0.4656    0.6171 H       1  LIG1        0.2922
     56 N         -15.0226   -5.9205   -1.1772 N.1     1  LIG1       -0.1908
     57 C         -15.3984   -4.8779   -0.8761 C.1     1  LIG1        0.0999
     58 C         -18.2472   -4.1453   -0.3758 C.ar    1  LIG1        0.1613
     59 C         -19.5941   -3.9942   -0.5392 C.ar    1  LIG1        0.1138
     60 C         -20.1431   -5.3216   -0.5158 C.ar    1  LIG1        0.1845
     61 C         -19.0941   -6.1816   -0.3319 C.ar    1  LIG1        0.1801
     62 O         -17.9507   -5.4537   -0.2535 O.2     1  LIG1       -0.4491
     63 N         -20.3436   -2.8169   -0.7149 N.pl3   1  LIG1       -0.3522
     64 H         -20.1141   -2.3517   -1.5887 H       1  LIG1        0.1425
     65 H         -21.3339   -3.0436   -0.7090 H       1  LIG1        0.1425
     66 O         -21.4597   -5.5153   -0.7312 O.3     1  LIG1       -0.5020
     67 H         -21.7366   -6.3810   -0.3906 H       1  LIG1        0.2924
     68 C         -19.8587   -8.5718    0.0468 C.ar    1  LIG1        0.0362
     69 C         -19.5592   -9.9361   -0.0345 C.ar    1  LIG1       -0.0343
     70 C         -18.8876   -7.6332   -0.3384 C.ar    1  LIG1        0.0398
     71 C         -18.3146  -10.3820   -0.4565 C.ar    1  LIG1        0.0275
     72 H         -20.3179  -10.6572    0.2427 H       1  LIG1        0.0637
     73 C         -17.6301   -8.0772   -0.7484 C.ar    1  LIG1       -0.0076
     74 C         -17.3348   -9.4324   -0.7925 C.ar    1  LIG1        0.1254
     75 H         -16.8735   -7.3519   -1.0245 H       1  LIG1        0.0662
     76 C         -21.1359   -8.1767    0.5865 C.1     1  LIG1       -0.0689
     77 C         -22.2037   -7.8815    1.0631 C.1     1  LIG1       -0.1139
     78 H         -23.1360   -7.6304    1.5168 H       1  LIG1        0.1232
     79 O         -16.1156   -9.8859   -1.1413 O.3     1  LIG1       -0.5061
     80 H         -15.5383   -9.1589   -1.4081 H       1  LIG1        0.2922
     81 C         -17.5896  -12.4715   -1.6858 C.ar    1  LIG1        0.1479
     82 C         -18.0076  -11.8371   -0.5085 C.ar    1  LIG1        0.0227
     83 C         -18.1448  -12.6390    0.6211 C.ar    1  LIG1       -0.0343
     84 C         -17.8609  -14.0010    0.5346 C.ar    1  LIG1        0.0434
     85 C         -17.4373  -14.5159   -0.6973 C.ar    1  LIG1        0.0444
     86 N         -17.3097  -13.7671   -1.7825 N.ar    1  LIG1       -0.2428
     87 H         -18.4541  -12.2043    1.5626 H       1  LIG1        0.0637
     88 H         -17.2002  -15.5674   -0.7937 H       1  LIG1        0.0842
     89 N         -17.4071  -11.0912   -3.8880 N.1     1  LIG1       -0.1893
     90 C         -17.4746  -11.7013   -2.9199 C.1     1  LIG1        0.1197
     91 C         -17.9866  -14.8653    1.6802 C.1     1  LIG1       -0.0681
     92 C         -18.0910  -15.5857    2.6357 C.1     1  LIG1       -0.1139
     93 H         -18.1817  -16.2228    3.4854 H       1  LIG1        0.1232
@<TRIPOS>BOND
     1    89    90    3
     2    90    81    1
     3    25    24    1
     4    21    19    1
     5    86    81   ar
     6    86    85   ar
     7    81    82   ar
     8    24    23    3
     9    12    11    1
    10    64    63    1
    11    80    79    1
    12    11     4    1
    13    56    57    3
    14    79    74    1
    15    23    15    1
    16    75    73    1
    17    57    52    1
    18    88    85    1
    19    74    73   ar
    20    74    71   ar
    21    73    70   ar
    22    66    60    1
    23    66    67    1
    24    63    65    1
    25    63    59    1
    26    19    20    1
    27    19    14    1
    28    19    22    1
    29    85    84   ar
    30    53    51    1
    31    59    60   ar
    32    59    58   ar
    33    52    51   ar
    34    52    49   ar
    35    60    61   ar
    36    82    71    1
    37    82    83   ar
    38    15    14   ar
    39    15    16   ar
    40    71    69   ar
    41    51    48   ar
    42    58    49    1
    43    58    62   ar
    44    14    13   ar
    45    70    61    1
    46    70    68   ar
    47    61    62   ar
    48     7     3    1
    49    31    30    1
    50    49    47   ar
    51    45    39    1
    52    42    38    1
    53    39    38   ar
    54    39    40   ar
    55     4     3   ar
    56     4     5   ar
    57    48    40    1
    58    48    46   ar
    59    38    37   ar
    60    69    68   ar
    61    69    72    1
    62    40    41   ar
    63    47    46   ar
    64    47    50    1
    65    30    26   ar
    66    30    29   ar
    67    68    76    1
    68    16    26    1
    69    16    17   ar
    70    46    54    1
    71    41    36   ar
    72    37    36   ar
    73    37    29    1
    74    26    27   ar
    75    36    44    1
    76    29    28   ar
    77    13    17   ar
    78    13     5    1
    79     3     2   ar
    80    44    43    3
    81    54    55    1
    82    17    18    1
    83    84    83   ar
    84    84    91    1
    85    27    28   ar
    86    27    32    1
    87    76    77    3
    88    28    34    1
    89    83    87    1
    90     5     6   ar
    91    32    33    1
    92    34    35    1
    93    77    78    1
    94     2     8    1
    95     2     1   ar
    96    91    92    3
    97     6     1   ar
    98     1    10    1
    99    92    93    1
   100    10     9    3
