@<TRIPOS>MOLECULE
mol_data/opt/m06hf/geoms/mol2/6df12de13hf6af-.out
 44 47 0 0 0
SMALL
GASTEIGER

@<TRIPOS>ATOM
      1 C          -4.2156   -2.0325   -0.3205 C.ar    1  LIG1        0.1411
      2 C          -2.9904   -2.0803    0.3542 C.ar    1  LIG1       -0.0223
      3 C          -2.5305   -0.9224    0.9495 C.ar    1  LIG1       -0.0152
      4 C          -3.2926    0.2439    0.8495 C.ar    1  LIG1        0.1459
      5 C          -4.4912    0.1884    0.1182 C.ar    1  LIG1        0.1499
      6 N          -4.9410   -0.9336   -0.4371 N.ar    1  LIG1       -0.2295
      7 H          -1.6025   -0.8855    1.5029 H       1  LIG1        0.0655
      8 H          -2.4373   -3.0069    0.4080 H       1  LIG1        0.0647
      9 N          -5.1326   -4.2154   -1.4020 N.1     1  LIG1       -0.1893
     10 C          -4.7448   -3.2425   -0.9357 C.1     1  LIG1        0.1191
     11 O          -2.8360    1.3347    1.4802 O.3     1  LIG1       -0.5045
     12 H          -3.4292    2.0910    1.3991 H       1  LIG1        0.2922
     13 C          -5.3586    1.3719   -0.0485 C.ar    1  LIG1        0.1760
     14 C          -5.1256    2.6832   -0.3450 C.ar    1  LIG1        0.1151
     15 C          -6.4148    3.3296   -0.4395 C.ar    1  LIG1        0.0899
     16 C          -7.3308    2.3462   -0.1706 C.ar    1  LIG1        0.1704
     17 O          -6.6846    1.1788    0.0574 O.2     1  LIG1       -0.4490
     18 N          -2.8218    3.7712   -0.7594 N.1     1  LIG1       -0.1907
     19 C          -3.8509    3.2911   -0.5932 C.1     1  LIG1        0.1043
     20 C          -6.6468    4.6768   -0.8462 C.1     1  LIG1       -0.0645
     21 C          -6.8088    5.8102   -1.2142 C.1     1  LIG1       -0.1138
     22 H          -6.9341    6.8115   -1.5584 H       1  LIG1        0.1232
     23 C          -8.7664    2.3056   -0.0802 C.ar    1  LIG1        0.1084
     24 C          -9.6920    3.2835    0.2623 C.ar    1  LIG1        0.0960
     25 C         -10.9520    2.6354    0.2674 C.ar    1  LIG1        0.1636
     26 C         -10.7706    1.3020   -0.0501 C.ar    1  LIG1        0.0925
     27 N          -9.4435    1.1212   -0.2742 N.ar    1  LIG1       -0.3473
     28 H          -8.9920    0.2359   -0.4495 H       1  LIG1        0.1662
     29 N          -9.4895    4.5984    0.6460 N.pl3   1  LIG1       -0.3534
     30 H          -8.7856    5.1078    0.1291 H       1  LIG1        0.1425
     31 H         -10.3602    5.1011    0.7563 H       1  LIG1        0.1425
     32 O         -12.1245    3.2803    0.5767 O.3     1  LIG1       -0.5031
     33 H         -12.7319    3.2271   -0.1718 H       1  LIG1        0.2923
     34 C         -11.5832   -0.8272   -1.0784 C.ar    1  LIG1        0.0370
     35 C         -11.7728    0.2364   -0.1879 C.ar    1  LIG1        0.0235
     36 C         -12.9435    0.2732    0.5678 C.ar    1  LIG1       -0.0080
     37 C         -13.8619   -0.7569    0.4063 C.ar    1  LIG1        0.1355
     38 C         -13.5728   -1.7837   -0.4944 C.ar    1  LIG1        0.0690
     39 N         -12.4591   -1.8138   -1.2170 N.ar    1  LIG1       -0.2590
     40 H         -13.1350    1.0686    1.2768 H       1  LIG1        0.0661
     41 H         -14.2707   -2.6037   -0.6333 H       1  LIG1        0.0867
     42 H         -10.7037   -0.8707   -1.7103 H       1  LIG1        0.0836
     43 O         -15.0027   -0.7251    1.1395 O.3     1  LIG1       -0.5052
     44 H         -15.5360   -1.5111    0.9785 H       1  LIG1        0.2922
@<TRIPOS>BOND
     1    42    34    1
     2    22    21    1
     3     9    10    3
     4    39    34   ar
     5    39    38   ar
     6    21    20    3
     7    34    35   ar
     8    10     1    1
     9    20    15    1
    10    18    19    3
    11    41    38    1
    12    19    14    1
    13    38    37   ar
    14    28    27    1
    15    15    14   ar
    16    15    16   ar
    17     6     1   ar
    18     6     5   ar
    19    14    13   ar
    20     1     2   ar
    21    27    23   ar
    22    27    26   ar
    23    35    26    1
    24    35    36   ar
    25    33    32    1
    26    16    23    1
    27    16    17   ar
    28    23    24   ar
    29    26    25   ar
    30    13    17   ar
    31    13     5    1
    32     5     4   ar
    33    30    29    1
    34    24    25   ar
    35    24    29    1
    36    25    32    1
    37     2     8    1
    38     2     3   ar
    39    37    36   ar
    40    37    43    1
    41    36    40    1
    42    29    31    1
    43     4     3   ar
    44     4    11    1
    45     3     7    1
    46    44    43    1
    47    12    11    1
