@<TRIPOS>MOLECULE
mol_data/opt/m06hf/geoms/mol2/6df13dh6ha4fi.out
 49 52 0 0 0
SMALL
GASTEIGER

@<TRIPOS>ATOM
      1 C          -4.4837   -2.0736   -0.2476 C.ar    1  LIG1        0.1410
      2 C          -3.2065   -2.2420    0.2903 C.ar    1  LIG1       -0.0223
      3 C          -2.5657   -1.1234    0.7916 C.ar    1  LIG1       -0.0153
      4 C          -3.2017    0.1164    0.7313 C.ar    1  LIG1        0.1443
      5 C          -4.4649    0.1877    0.1154 C.ar    1  LIG1        0.1311
      6 N          -5.0885   -0.8985   -0.3355 N.ar    1  LIG1       -0.2312
      7 H          -1.5877   -1.1757    1.2497 H       1  LIG1        0.0655
      8 H          -2.7519   -3.2218    0.3197 H       1  LIG1        0.0647
      9 N          -5.7683   -4.1518   -1.1459 N.1     1  LIG1       -0.1893
     10 C          -5.2146   -3.2270   -0.7555 C.1     1  LIG1        0.1191
     11 O          -2.5681    1.1594    1.2862 O.3     1  LIG1       -0.5046
     12 H          -3.0897    1.9711    1.2719 H       1  LIG1        0.2922
     13 C          -5.2332    1.4409   -0.0211 C.ar    1  LIG1        0.0884
     14 C          -4.8859    2.7761   -0.2443 C.ar    1  LIG1        0.0998
     15 C          -6.0924    3.5235   -0.3678 C.ar    1  LIG1        0.0686
     16 C          -7.1333    2.6239   -0.2209 C.ar    1  LIG1        0.0725
     17 N          -6.5746    1.3854   -0.0228 N.ar    1  LIG1       -0.3503
     18 H          -7.1143    0.5278    0.0666 H       1  LIG1        0.1660
     19 N          -2.5603    3.8346   -0.5961 N.1     1  LIG1       -0.1907
     20 C          -3.5859    3.3365   -0.4457 C.1     1  LIG1        0.1032
     21 N          -6.1901    4.9047   -0.5682 N.pl3   1  LIG1       -0.3553
     22 H          -5.2973    5.3313   -0.7876 H       1  LIG1        0.1424
     23 H          -6.8864    5.1529   -1.2628 H       1  LIG1        0.1424
     24 C          -9.5074    1.8686   -0.5791 C.ar    1  LIG1        0.1261
     25 C          -8.5825    2.8606   -0.1930 C.ar    1  LIG1        0.0397
     26 C          -9.1076    4.0647    0.2655 C.ar    1  LIG1       -0.0473
     27 C         -10.4838    4.2491    0.3384 C.ar    1  LIG1       -0.0348
     28 C         -11.3153    3.1948   -0.0418 C.ar    1  LIG1        0.0766
     29 N         -10.8142    2.0360   -0.4898 N.ar    1  LIG1       -0.2317
     30 H          -8.4271    4.8432    0.5910 H       1  LIG1        0.0626
     31 N          -9.0575    0.6187   -1.0345 N.pl3   1  LIG1       -0.3426
     32 H          -9.8445    0.0429   -1.3118 H       1  LIG1        0.1437
     33 H          -8.3663    0.6812   -1.7769 H       1  LIG1        0.1437
     34 H         -10.9046    5.1737    0.6977 H       1  LIG1        0.0639
     35 C         -13.5429    4.4374    0.0265 C.ar    1  LIG1        0.1260
     36 C         -14.9345    4.4006    0.1184 C.ar    1  LIG1       -0.0193
     37 C         -12.8067    3.2476    0.0519 C.ar    1  LIG1        0.0421
     38 C         -15.5993    3.1889    0.2303 C.ar    1  LIG1       -0.0554
     39 H         -15.4928    5.3302    0.0997 H       1  LIG1        0.0654
     40 C         -13.5079    2.0411    0.1555 C.ar    1  LIG1       -0.0461
     41 C         -14.8932    1.9844    0.2488 C.ar    1  LIG1       -0.0496
     42 H         -12.9230    1.1302    0.1568 H       1  LIG1        0.0628
     43 H         -16.6807    3.1801    0.3042 H       1  LIG1        0.0621
     44 O         -12.8869    5.6285   -0.1001 O.3     1  LIG1       -0.5061
     45 H         -13.5196    6.3486   -0.1892 H       1  LIG1        0.2922
     46 C         -15.6262    0.6595    0.3591 C.3     1  LIG1       -0.0397
     47 H         -14.9172   -0.1598    0.4696 H       1  LIG1        0.0278
     48 H         -16.2262    0.4806   -0.5348 H       1  LIG1        0.0278
     49 H         -16.2913    0.6621    1.2241 H       1  LIG1        0.0278
@<TRIPOS>BOND
     1    33    31    1
     2    32    31    1
     3    23    21    1
     4     9    10    3
     5    31    24    1
     6    22    21    1
     7    10     1    1
     8    19    20    3
     9    24    29   ar
    10    24    25   ar
    11    21    15    1
    12    48    46    1
    13    29    28   ar
    14    20    14    1
    15    15    14   ar
    16    15    16   ar
    17     6     1   ar
    18     6     5   ar
    19     1     2   ar
    20    14    13   ar
    21    16    25    1
    22    16    17   ar
    23    25    26   ar
    24    45    44    1
    25    44    35    1
    26    28    37    1
    27    28    27   ar
    28    17    13   ar
    29    17    18    1
    30    13     5    1
    31    35    37   ar
    32    35    36   ar
    33    37    40   ar
    34    39    36    1
    35     5     4   ar
    36    36    38   ar
    37    40    42    1
    38    40    41   ar
    39    38    41   ar
    40    38    43    1
    41    41    46    1
    42    26    27   ar
    43    26    30    1
    44     2     8    1
    45     2     3   ar
    46    27    34    1
    47    46    47    1
    48    46    49    1
    49     4     3   ar
    50     4    11    1
    51     3     7    1
    52    12    11    1
