@<TRIPOS>MOLECULE
mol_data/opt/m06hf/geoms/mol2/6df6df-4df6df.out
 47 50 0 0 0
SMALL
GASTEIGER

@<TRIPOS>ATOM
      1 C          -4.3812   -2.1583    0.4699 C.ar    1  LIG1        0.1410
      2 C          -3.0779   -2.3096   -0.0023 C.ar    1  LIG1       -0.0223
      3 C          -2.4531   -1.1871   -0.5222 C.ar    1  LIG1       -0.0154
      4 C          -3.1284    0.0304   -0.5324 C.ar    1  LIG1        0.1429
      5 C          -4.4300    0.0781   -0.0040 C.ar    1  LIG1        0.1165
      6 N          -5.0399   -1.0073    0.4648 N.ar    1  LIG1       -0.2326
      7 H          -1.4559   -1.2254   -0.9397 H       1  LIG1        0.0655
      8 H          -2.5952   -3.2759    0.0288 H       1  LIG1        0.0647
      9 N          -5.6387   -4.2418    1.3971 N.1     1  LIG1       -0.1893
     10 C          -5.0977   -3.3150    0.9944 C.1     1  LIG1        0.1191
     11 O          -2.5608    1.1063   -1.1405 O.3     1  LIG1       -0.5046
     12 H          -2.1307    1.6887   -0.4946 H       1  LIG1        0.2922
     13 C          -4.8283    2.5680    0.4412 C.ar    1  LIG1        0.1502
     14 C          -5.2657    1.3168    0.0023 C.ar    1  LIG1        0.0433
     15 C          -6.5965    1.2212   -0.3958 C.ar    1  LIG1       -0.0060
     16 C          -7.4007    2.3511   -0.3815 C.ar    1  LIG1        0.1435
     17 C          -6.8451    3.5751    0.0454 C.ar    1  LIG1        0.1151
     18 N          -5.5917    3.6540    0.4568 N.ar    1  LIG1       -0.2320
     19 H          -6.9853    0.2591   -0.7093 H       1  LIG1        0.0662
     20 N          -2.4031    2.7907    1.3577 N.1     1  LIG1       -0.1893
     21 C          -3.4805    2.7289    0.9661 C.1     1  LIG1        0.1198
     22 O          -8.6944    2.3405   -0.7611 O.3     1  LIG1       -0.5046
     23 H          -8.9534    1.4830   -1.1182 H       1  LIG1        0.2922
     24 C          -7.0690    6.0184   -0.4630 C.ar    1  LIG1        0.0618
     25 C          -7.7967    7.2072   -0.4467 C.ar    1  LIG1       -0.0324
     26 C          -7.6355    4.8411    0.0430 C.ar    1  LIG1        0.0248
     27 C          -9.0850    7.2448    0.0744 C.ar    1  LIG1        0.0276
     28 H          -7.3622    8.1018   -0.8739 H       1  LIG1        0.0638
     29 C          -8.9204    4.8768    0.5709 C.ar    1  LIG1       -0.0090
     30 C          -9.6383    6.0701    0.5997 C.ar    1  LIG1        0.1253
     31 H          -9.3627    3.9740    0.9728 H       1  LIG1        0.0661
     32 N          -4.7329    6.0813   -1.5910 N.1     1  LIG1       -0.1908
     33 C          -5.7548    6.0273   -1.0724 C.1     1  LIG1        0.0998
     34 O         -10.8655    6.1578    1.1603 O.3     1  LIG1       -0.5061
     35 H         -11.3273    5.3118    1.1364 H       1  LIG1        0.2922
     36 C         -11.1328    8.5976   -0.5374 C.ar    1  LIG1        0.1480
     37 C          -9.8665    8.5128    0.0629 C.ar    1  LIG1        0.0250
     38 C          -9.3446    9.6741    0.6183 C.ar    1  LIG1       -0.0081
     39 C         -10.0932   10.8460    0.5628 C.ar    1  LIG1        0.1355
     40 C         -11.3492   10.8129   -0.0487 C.ar    1  LIG1        0.0705
     41 N         -11.8502    9.7118   -0.5880 N.ar    1  LIG1       -0.2404
     42 H          -8.3786    9.6805    1.1064 H       1  LIG1        0.0661
     43 H         -11.9616   11.7071   -0.1048 H       1  LIG1        0.0867
     44 N         -12.1548    6.4968   -1.6885 N.1     1  LIG1       -0.1893
     45 C         -11.7171    7.4277   -1.1809 C.1     1  LIG1        0.1197
     46 O          -9.5724   11.9649    1.1094 O.3     1  LIG1       -0.5052
     47 H         -10.1766   12.7115    1.0265 H       1  LIG1        0.2922
@<TRIPOS>BOND
     1    44    45    3
     2    32    33    3
     3    45    36    1
     4    11     4    1
     5    11    12    1
     6    23    22    1
     7    33    24    1
     8     7     3    1
     9    28    25    1
    10    22    16    1
    11    19    15    1
    12    41    36   ar
    13    41    40   ar
    14    36    37   ar
    15     4     3   ar
    16     4     5   ar
    17     3     2   ar
    18    24    25   ar
    19    24    26   ar
    20    25    27   ar
    21    15    16   ar
    22    15    14   ar
    23    16    17   ar
    24    43    40    1
    25    40    39   ar
    26     5    14    1
    27     5     6   ar
    28     2     8    1
    29     2     1   ar
    30    14    13   ar
    31    26    17    1
    32    26    29   ar
    33    17    18   ar
    34    37    27    1
    35    37    38   ar
    36    27    30   ar
    37    13    18   ar
    38    13    21    1
    39     6     1   ar
    40     1    10    1
    41    39    38   ar
    42    39    46    1
    43    29    30   ar
    44    29    31    1
    45    30    34    1
    46    38    42    1
    47    21    20    3
    48    10     9    3
    49    47    46    1
    50    35    34    1
