@<TRIPOS>MOLECULE
mol_data/opt/m06hf/geoms/mol2/6df6ia-12el-6ie12al-12fa-13id13li.out
 98 105 0 0 0
SMALL
GASTEIGER

@<TRIPOS>ATOM
      1 C          -3.3368   -1.2670   -3.0616 C.ar    1  LIG1        0.1410
      2 C          -2.4092   -1.8723   -2.2124 C.ar    1  LIG1       -0.0223
      3 C          -2.3599   -1.4485   -0.8947 C.ar    1  LIG1       -0.0154
      4 C          -3.2262   -0.4388   -0.4852 C.ar    1  LIG1        0.1428
      5 C          -4.1105    0.1242   -1.4238 C.ar    1  LIG1        0.1154
      6 N          -4.1622   -0.2999   -2.6802 N.ar    1  LIG1       -0.2326
      7 H          -1.6803   -1.8818   -0.1740 H       1  LIG1        0.0655
      8 H          -1.7617   -2.6536   -2.5839 H       1  LIG1        0.0647
      9 N          -3.4725   -2.0600   -5.5373 N.1     1  LIG1       -0.1893
     10 C          -3.4267   -1.6973   -4.4507 C.1     1  LIG1        0.1191
     11 O          -3.1885   -0.0420    0.8028 O.3     1  LIG1       -0.5046
     12 H          -3.9241    0.5554    0.9927 H       1  LIG1        0.2922
     13 C          -6.4284    1.1004   -1.1762 C.ar    1  LIG1        0.0483
     14 C          -5.0342    1.2238   -1.0127 C.ar    1  LIG1        0.0250
     15 C          -4.5294    2.4035   -0.4683 C.ar    1  LIG1       -0.0486
     16 C          -5.3993    3.4235   -0.1027 C.ar    1  LIG1       -0.0320
     17 C          -6.7614    3.2057   -0.3024 C.ar    1  LIG1        0.1076
     18 N          -7.2543    2.0759   -0.8181 N.ar    1  LIG1       -0.2481
     19 H          -3.4586    2.5309   -0.3536 H       1  LIG1        0.0625
     20 C          -7.0577   -0.1417   -1.7707 C.3     1  LIG1       -0.0217
     21 H          -6.7125   -1.0362   -1.2490 H       1  LIG1        0.0293
     22 H          -6.7748   -0.2324   -2.8194 H       1  LIG1        0.0293
     23 H          -8.1369   -0.0461   -1.6798 H       1  LIG1        0.0293
     24 H          -5.0417    4.3554    0.3105 H       1  LIG1        0.0640
     25 C          -7.7583    4.2330    0.0468 C.ar    1  LIG1        0.1728
     26 C          -7.6784    5.4910    0.5888 C.ar    1  LIG1        0.1142
     27 C          -9.0369    5.9648    0.6546 C.ar    1  LIG1        0.1818
     28 C          -9.8267    4.9647    0.1681 C.ar    1  LIG1        0.1801
     29 O          -9.0403    3.9320   -0.2024 O.2     1  LIG1       -0.4482
     30 C          -6.5294    6.2303    1.0107 C.1     1  LIG1       -0.0621
     31 C          -5.5877    6.8779    1.3840 C.1     1  LIG1       -0.1137
     32 H          -4.7570    7.4614    1.7085 H       1  LIG1        0.1232
     33 O          -9.4447    7.1749    1.1075 O.3     1  LIG1       -0.4901
     34 C          -9.5208    7.2504    2.5359 C.3     1  LIG1        0.0790
     35 H          -9.8412    8.2621    2.7682 H       1  LIG1        0.0660
     36 H         -10.2499    6.5258    2.9024 H       1  LIG1        0.0660
     37 H          -8.5400    7.0548    2.9708 H       1  LIG1        0.0660
     38 C         -11.9585    3.6323   -0.0510 C.ar    1  LIG1        0.0499
     39 C         -11.2773    4.8667   -0.0163 C.ar    1  LIG1        0.0432
     40 C         -12.0214    6.0333   -0.1501 C.ar    1  LIG1       -0.0316
     41 C         -13.4024    5.9652   -0.3329 C.ar    1  LIG1        0.0543
     42 C         -13.9945    4.6914   -0.3872 C.ar    1  LIG1        0.1217
     43 N         -13.2697    3.5798   -0.2388 N.ar    1  LIG1       -0.2468
     44 H         -11.5299    6.9972   -0.1134 H       1  LIG1        0.0638
     45 C         -11.2635    2.2980    0.1409 C.3     1  LIG1       -0.0216
     46 H         -10.6331    2.3175    1.0308 H       1  LIG1        0.0293
     47 H         -10.6230    2.0681   -0.7122 H       1  LIG1        0.0293
     48 H         -12.0384    1.5438    0.2559 H       1  LIG1        0.0293
     49 C         -14.1369    7.1980   -0.4625 C.1     1  LIG1       -0.0674
     50 C         -14.6861    8.2631   -0.5618 C.1     1  LIG1       -0.1138
     51 H         -15.1703    9.2084   -0.6502 H       1  LIG1        0.1232
     52 C         -15.4328    4.4724   -0.6052 C.ar    1  LIG1        0.1588
     53 C         -16.5072    5.2818   -0.8591 C.ar    1  LIG1        0.0283
     54 C         -17.6325    4.4048   -0.9878 C.ar    1  LIG1        0.1695
     55 C         -17.1544    3.1350   -0.8022 C.ar    1  LIG1        0.2156
     56 O         -15.8274    3.1887   -0.5726 O.2     1  LIG1       -0.4462
     57 H         -16.4898    6.3524   -0.9472 H       1  LIG1        0.0693
     58 O         -18.9225    4.7055   -1.2403 O.3     1  LIG1       -0.4912
     59 C         -19.2183    6.0843   -1.3658 C.3     1  LIG1        0.0790
     60 H         -20.2871    6.1460   -1.5505 H       1  LIG1        0.0660
     61 H         -18.9690    6.6152   -0.4436 H       1  LIG1        0.0660
     62 H         -18.6713    6.5192   -2.2063 H       1  LIG1        0.0660
     63 C         -17.7230    1.8036   -0.7951 C.ar    1  LIG1        0.2154
     64 C         -18.9488    1.2378   -0.9930 C.ar    1  LIG1        0.1665
     65 C         -18.7850   -0.1837   -0.8340 C.ar    1  LIG1        0.0280
     66 C         -17.4649   -0.3689   -0.5532 C.ar    1  LIG1        0.1558
     67 O         -16.8291    0.8157   -0.5263 O.2     1  LIG1       -0.4463
     68 O         -20.0889    1.9099   -1.2767 O.3     1  LIG1       -0.5031
     69 H         -20.7904    1.2873   -1.4898 H       1  LIG1        0.2923
     70 H         -19.5456   -0.9416   -0.9189 H       1  LIG1        0.0693
     71 C         -16.5897   -1.4958   -0.2811 C.ar    1  LIG1        0.0869
     72 C         -16.7947   -2.8537   -0.1938 C.ar    1  LIG1       -0.0041
     73 C         -15.5173   -3.4179    0.1087 C.ar    1  LIG1        0.0821
     74 C         -14.5882   -2.3879    0.1986 C.ar    1  LIG1        0.0848
     75 N         -15.2635   -1.2380   -0.0410 N.ar    1  LIG1       -0.3493
     76 H         -14.8889   -0.3013    0.0366 H       1  LIG1        0.1661
     77 C         -18.0883   -3.6006   -0.3879 C.3     1  LIG1       -0.0364
     78 H         -17.9157   -4.6684   -0.2597 H       1  LIG1        0.0279
     79 H         -18.4820   -3.4280   -1.3911 H       1  LIG1        0.0279
     80 H         -18.8311   -3.2756    0.3431 H       1  LIG1        0.0279
     81 N         -15.1304   -5.9531    0.3953 N.1     1  LIG1       -0.1908
     82 C         -15.2635   -4.8190    0.2691 C.1     1  LIG1        0.1016
     83 C         -13.1619   -2.3791    0.4898 C.ar    1  LIG1        0.1066
     84 C         -12.4021   -3.1753    1.3210 C.ar    1  LIG1        0.1496
     85 C         -11.0634   -2.6907    1.3113 C.ar    1  LIG1        0.0092
     86 C         -11.0558   -1.6120    0.4601 C.ar    1  LIG1        0.0087
     87 N         -12.3204   -1.4186   -0.0193 N.ar    1  LIG1       -0.3563
     88 H         -12.5601   -0.7911   -0.7710 H       1  LIG1        0.1655
     89 H         -10.2441   -0.9721    0.1565 H       1  LIG1        0.0811
     90 O         -12.8309   -4.2524    2.0338 O.3     1  LIG1       -0.4927
     91 C         -13.5977   -3.9311    3.1910 C.3     1  LIG1        0.0789
     92 H         -13.8618   -4.8801    3.6504 H       1  LIG1        0.0660
     93 H         -13.0036   -3.3247    3.8791 H       1  LIG1        0.0660
     94 H         -14.5040   -3.3910    2.9100 H       1  LIG1        0.0660
     95 C          -9.9205   -3.2844    2.0932 C.3     1  LIG1       -0.0348
     96 H          -8.9891   -2.7741    1.8485 H       1  LIG1        0.0279
     97 H          -9.8182   -4.3434    1.8573 H       1  LIG1        0.0279
     98 H         -10.0984   -3.1908    3.1656 H       1  LIG1        0.0279
@<TRIPOS>BOND
     1     9    10    3
     2    10     1    1
     3     1     6   ar
     4     1     2   ar
     5    22    20    1
     6     6     5   ar
     7     8     2    1
     8     2     3   ar
     9    62    59    1
    10    20    23    1
    11    20    21    1
    12    20    13    1
    13    60    59    1
    14    69    68    1
    15     5    14    1
    16     5     4   ar
    17    79    77    1
    18    59    58    1
    19    59    61    1
    20    68    64    1
    21    58    54    1
    22    13    14   ar
    23    13    18   ar
    24    14    15   ar
    25    64    65   ar
    26    64    63   ar
    27    54    53   ar
    28    54    55   ar
    29    57    53    1
    30    70    65    1
    31     3     4   ar
    32     3     7    1
    33    53    52   ar
    34    65    66   ar
    35    18    17   ar
    36    55    63    1
    37    55    56   ar
    38    63    67   ar
    39    88    87    1
    40    47    45    1
    41    51    50    1
    42    52    56   ar
    43    52    42    1
    44    50    49    3
    45    66    67   ar
    46    66    71    1
    47     4    11    1
    48    15    19    1
    49    15    16   ar
    50    49    41    1
    51    77    78    1
    52    77    72    1
    53    77    80    1
    54    42    41   ar
    55    42    43   ar
    56    41    40   ar
    57    17    16   ar
    58    17    25    1
    59    71    72   ar
    60    71    75   ar
    61    43    38   ar
    62    29    25   ar
    63    29    28   ar
    64    72    73   ar
    65    40    44    1
    66    40    39   ar
    67    16    24    1
    68    38    39   ar
    69    38    45    1
    70    75    76    1
    71    75    74   ar
    72    87    86   ar
    73    87    83   ar
    74    39    28    1
    75    25    26   ar
    76    73    74   ar
    77    73    82    1
    78    45    48    1
    79    45    46    1
    80    89    86    1
    81    28    27   ar
    82    74    83    1
    83    82    81    3
    84    86    85   ar
    85    83    84   ar
    86    26    27   ar
    87    26    30    1
    88    27    33    1
    89    11    12    1
    90    30    31    3
    91    33    34    1
    92    85    84   ar
    93    85    95    1
    94    84    90    1
    95    31    32    1
    96    96    95    1
    97    97    95    1
    98    90    91    1
    99    95    98    1
   100    34    35    1
   101    34    36    1
   102    34    37    1
   103    94    91    1
   104    91    92    1
   105    91    93    1
