@<TRIPOS>MOLECULE
mol_data/opt/m06hf/geoms/mol2/6df6hd6fl4fh-.out
 52 55 0 0 0
SMALL
GASTEIGER

@<TRIPOS>ATOM
      1 C          -4.1251   -2.2473   -0.4917 C.ar    1  LIG1        0.1410
      2 C          -2.8924   -2.3051    0.1538 C.ar    1  LIG1       -0.0223
      3 C          -2.4737   -1.1780    0.8432 C.ar    1  LIG1       -0.0154
      4 C          -3.2783   -0.0437    0.8404 C.ar    1  LIG1        0.1429
      5 C          -4.4757   -0.0534    0.0932 C.ar    1  LIG1        0.1170
      6 N          -4.8863   -1.1592   -0.5206 N.ar    1  LIG1       -0.2326
      7 H          -1.5490   -1.1554    1.4036 H       1  LIG1        0.0655
      8 H          -2.3062   -3.2125    0.1305 H       1  LIG1        0.0647
      9 N          -5.0317   -4.3560   -1.7182 N.1     1  LIG1       -0.1893
     10 C          -4.6414   -3.4204   -1.1831 C.1     1  LIG1        0.1191
     11 O          -2.8678    1.0212    1.5606 O.3     1  LIG1       -0.5046
     12 H          -3.6091    1.6082    1.7624 H       1  LIG1        0.2922
     13 C          -6.7539    1.0911    0.0051 C.ar    1  LIG1        0.1263
     14 C          -5.3271    1.1621   -0.0129 C.ar    1  LIG1        0.0447
     15 C          -4.7763    2.4216   -0.1557 C.ar    1  LIG1       -0.0297
     16 C          -5.5734    3.5708   -0.2177 C.ar    1  LIG1        0.0786
     17 C          -6.9716    3.4255   -0.1466 C.ar    1  LIG1        0.0956
     18 N          -7.4973    2.2013   -0.0302 N.ar    1  LIG1       -0.2303
     19 H          -3.7001    2.5374   -0.2227 H       1  LIG1        0.0639
     20 N          -7.4080   -0.0776    0.0758 N.pl3   1  LIG1       -0.3426
     21 H          -8.4138   -0.0529    0.0048 H       1  LIG1        0.1437
     22 H          -6.9100   -0.9240   -0.1652 H       1  LIG1        0.1437
     23 N          -4.2904    5.8172   -0.3237 N.1     1  LIG1       -0.1908
     24 C          -4.8900    4.8381   -0.2790 C.1     1  LIG1        0.1013
     25 C          -9.2455    4.4045    0.3383 C.ar    1  LIG1        0.2225
     26 C          -7.9336    4.5499   -0.1814 C.ar    1  LIG1        0.0665
     27 C          -7.6085    5.7891   -0.7421 C.ar    1  LIG1       -0.0035
     28 C          -8.5081    6.8382   -0.6872 C.ar    1  LIG1        0.1469
     29 C          -9.7333    6.6214   -0.0363 C.ar    1  LIG1        0.1198
     30 N         -10.0871    5.4237    0.4140 N.ar    1  LIG1       -0.2087
     31 H          -6.6669    5.9362   -1.2512 H       1  LIG1        0.0663
     32 O          -9.7057    3.2393    0.7923 O.3     1  LIG1       -0.4919
     33 H          -9.0428    2.5503    0.5449 H       1  LIG1        0.2937
     34 O          -8.2796    8.0384   -1.2805 O.3     1  LIG1       -0.4929
     35 C          -7.0078    8.6270   -1.0278 C.3     1  LIG1        0.0789
     36 H          -7.1001    9.6698   -1.3211 H       1  LIG1        0.0660
     37 H          -6.7699    8.5536    0.0335 H       1  LIG1        0.0660
     38 H          -6.2280    8.1475   -1.6233 H       1  LIG1        0.0660
     39 C         -10.3870    8.9687    0.6158 C.ar    1  LIG1        0.1262
     40 C         -11.3678    9.9478    0.7341 C.ar    1  LIG1       -0.0178
     41 C         -10.7351    7.7157    0.1047 C.ar    1  LIG1        0.0472
     42 C         -12.6812    9.6864    0.3638 C.ar    1  LIG1       -0.0376
     43 H         -11.1055   10.9237    1.1274 H       1  LIG1        0.0655
     44 C         -12.0571    7.4546   -0.2429 C.ar    1  LIG1       -0.0282
     45 C         -13.0461    8.4321   -0.1300 C.ar    1  LIG1        0.0254
     46 H         -12.3035    6.4607   -0.5968 H       1  LIG1        0.0644
     47 H         -13.4340   10.4573    0.4759 H       1  LIG1        0.0637
     48 O          -9.0981    9.1828    1.0215 O.3     1  LIG1       -0.5061
     49 H          -9.0473    9.9996    1.5279 H       1  LIG1        0.2922
     50 N         -14.3849    8.1473   -0.4462 N.pl3   1  LIG1       -0.3579
     51 H         -14.9070    8.9466   -0.7789 H       1  LIG1        0.1423
     52 H         -14.4977    7.3568   -1.0668 H       1  LIG1        0.1423
@<TRIPOS>BOND
     1     9    10    3
     2    38    35    1
     3    36    35    1
     4    34    35    1
     5    34    28    1
     6    31    27    1
     7    10     1    1
     8    52    50    1
     9    35    37    1
    10    51    50    1
    11    27    28   ar
    12    27    26   ar
    13    28    29   ar
    14    46    44    1
    15     6     1   ar
    16     6     5   ar
    17     1     2   ar
    18    50    45    1
    19    23    24    3
    20    24    16    1
    21    44    45   ar
    22    44    41   ar
    23    19    15    1
    24    16    15   ar
    25    16    17   ar
    26    26    17    1
    27    26    25   ar
    28    22    20    1
    29    15    14   ar
    30    17    18   ar
    31    45    42   ar
    32    29    41    1
    33    29    30   ar
    34    18    13   ar
    35    14    13   ar
    36    14     5    1
    37    21    20    1
    38    13    20    1
    39     5     4   ar
    40    41    39   ar
    41     8     2    1
    42     2     3   ar
    43    25    30   ar
    44    25    32    1
    45    42    47    1
    46    42    40   ar
    47    33    32    1
    48    39    40   ar
    49    39    48    1
    50    40    43    1
    51     4     3   ar
    52     4    11    1
    53     3     7    1
    54    48    49    1
    55    11    12    1
