@<TRIPOS>MOLECULE
mol_data/opt/m06hf/geoms/mol2/6df6df-.out
 24 25 0 0 0
SMALL
GASTEIGER

@<TRIPOS>ATOM
      1 C          -4.4806   -1.9786    0.4610 C.ar    1  LIG1        0.1410
      2 C          -3.1720   -2.1006   -0.0038 C.ar    1  LIG1       -0.0223
      3 C          -2.5689   -0.9627   -0.5156 C.ar    1  LIG1       -0.0154
      4 C          -3.2698    0.2401   -0.5248 C.ar    1  LIG1        0.1429
      5 C          -4.5740    0.2605    0.0005 C.ar    1  LIG1        0.1165
      6 N          -5.1619   -0.8412    0.4603 N.ar    1  LIG1       -0.2326
      7 H          -1.5693   -0.9790   -0.9282 H       1  LIG1        0.0655
      8 H          -2.6680   -3.0563    0.0240 H       1  LIG1        0.0647
      9 N          -5.7023   -4.1001    1.3499 N.1     1  LIG1       -0.1893
     10 C          -5.1770   -3.1559    0.9669 C.1     1  LIG1        0.1191
     11 O          -2.7173    1.3291   -1.1262 O.3     1  LIG1       -0.5046
     12 H          -2.3053    1.9138   -0.4704 H       1  LIG1        0.2922
     13 C          -5.0258    2.7393    0.4492 C.ar    1  LIG1        0.1495
     14 C          -5.4383    1.4802    0.0121 C.ar    1  LIG1        0.0432
     15 C          -6.7695    1.3485   -0.3840 C.ar    1  LIG1       -0.0066
     16 C          -7.5915    2.4639   -0.3604 C.ar    1  LIG1        0.1356
     17 C          -7.0588    3.6913    0.0685 C.ar    1  LIG1        0.0705
     18 N          -5.8105    3.8169    0.4721 N.ar    1  LIG1       -0.2403
     19 H          -7.1351    0.3758   -0.6919 H       1  LIG1        0.0662
     20 H          -7.6937    4.5676    0.0857 H       1  LIG1        0.0867
     21 N          -2.6028    3.0179    1.3586 N.1     1  LIG1       -0.1893
     22 C          -3.6795    2.9248    0.9691 C.1     1  LIG1        0.1198
     23 O          -8.8880    2.4541   -0.7285 O.3     1  LIG1       -0.5052
     24 H          -9.1858    1.5648   -0.9499 H       1  LIG1        0.2922
@<TRIPOS>BOND
     1    11     4    1
     2    11    12    1
     3    24    23    1
     4     7     3    1
     5    23    16    1
     6    19    15    1
     7     4     3   ar
     8     4     5   ar
     9     3     2   ar
    10    15    16   ar
    11    15    14   ar
    12    16    17   ar
    13     2     8    1
    14     2     1   ar
    15     5    14    1
    16     5     6   ar
    17    14    13   ar
    18    17    20    1
    19    17    18   ar
    20    13    18   ar
    21    13    22    1
    22     6     1   ar
    23     1    10    1
    24    10     9    3
    25    22    21    3
