@<TRIPOS>MOLECULE
mol_data/opt/m06hf/geoms/mol2/6df6df6df6df-.out
 46 49 0 0 0
SMALL
GASTEIGER

@<TRIPOS>ATOM
      1 C          -3.9589   -1.8928   -1.1164 C.ar    1  LIG1        0.1410
      2 C          -3.0028   -2.2188   -0.1508 C.ar    1  LIG1       -0.0223
      3 C          -2.8369   -1.3609    0.9222 C.ar    1  LIG1       -0.0154
      4 C          -3.6223   -0.2117    0.9870 C.ar    1  LIG1        0.1429
      5 C          -4.5388    0.0323   -0.0470 C.ar    1  LIG1        0.1165
      6 N          -4.7056   -0.7989   -1.0668 N.ar    1  LIG1       -0.2326
      7 H          -2.1291   -1.5558    1.7160 H       1  LIG1        0.0655
      8 H          -2.4231   -3.1258   -0.2490 H       1  LIG1        0.0647
      9 N          -4.2736   -3.4942   -3.1433 N.1     1  LIG1       -0.1893
     10 C          -4.1562   -2.7771   -2.2570 C.1     1  LIG1        0.1191
     11 O          -3.4634    0.6144    2.0405 O.3     1  LIG1       -0.5046
     12 H          -4.1799    1.2598    2.0940 H       1  LIG1        0.2922
     13 C          -6.7836    1.1874   -0.0690 C.ar    1  LIG1        0.1502
     14 C          -5.3826    1.2651   -0.0318 C.ar    1  LIG1        0.0433
     15 C          -4.8053    2.5281    0.0123 C.ar    1  LIG1       -0.0060
     16 C          -5.6283    3.6530    0.0004 C.ar    1  LIG1        0.1435
     17 C          -7.0155    3.4604   -0.0610 C.ar    1  LIG1        0.1166
     18 N          -7.5674    2.2539   -0.0825 N.ar    1  LIG1       -0.2319
     19 H          -3.7305    2.6612    0.0379 H       1  LIG1        0.0662
     20 N          -7.9705   -1.1279   -0.0541 N.1     1  LIG1       -0.1893
     21 C          -7.4487   -0.1078   -0.0724 C.1     1  LIG1        0.1198
     22 O          -5.0515    4.8677    0.0455 O.3     1  LIG1       -0.5046
     23 H          -5.7050    5.5659    0.1826 H       1  LIG1        0.2922
     24 C          -8.9387    4.7867    0.8846 C.ar    1  LIG1        0.1502
     25 C          -7.9408    4.6312   -0.0865 C.ar    1  LIG1        0.0433
     26 C          -7.8766    5.5949   -1.0864 C.ar    1  LIG1       -0.0060
     27 C          -8.7778    6.6579   -1.0882 C.ar    1  LIG1        0.1435
     28 C          -9.7368    6.7184   -0.0622 C.ar    1  LIG1        0.1166
     29 N          -9.8063    5.7857    0.8862 N.ar    1  LIG1       -0.2319
     30 H          -7.1629    5.5225   -1.8991 H       1  LIG1        0.0662
     31 N          -9.0888    3.1061    2.8673 N.1     1  LIG1       -0.1893
     32 C          -9.0404    3.8356    1.9847 C.1     1  LIG1        0.1198
     33 O          -8.7607    7.5227   -2.1332 O.3     1  LIG1       -0.5046
     34 H          -8.3961    8.3839   -1.8731 H       1  LIG1        0.2922
     35 C         -10.5699    9.1343   -0.0836 C.ar    1  LIG1        0.1495
     36 C         -10.8026    7.7636    0.0139 C.ar    1  LIG1        0.0432
     37 C         -12.1131    7.3530    0.2591 C.ar    1  LIG1       -0.0066
     38 C         -13.1083    8.3132    0.3542 C.ar    1  LIG1        0.1356
     39 C         -12.7615    9.6688    0.2138 C.ar    1  LIG1        0.0705
     40 N         -11.5213   10.0635    0.0099 N.ar    1  LIG1       -0.2403
     41 H         -12.3254    6.2967    0.3775 H       1  LIG1        0.0662
     42 H         -13.5351   10.4223    0.2859 H       1  LIG1        0.0867
     43 N          -8.1178    9.9307   -0.4329 N.1     1  LIG1       -0.1893
     44 C          -9.2112    9.6219   -0.2632 C.1     1  LIG1        0.1198
     45 O         -14.4064    8.0364    0.5763 O.3     1  LIG1       -0.5052
     46 H         -14.5604    7.0889    0.6622 H       1  LIG1        0.2922
@<TRIPOS>BOND
     1     9    10    3
     2    10     1    1
     3    33    34    1
     4    33    27    1
     5    30    26    1
     6     1     6   ar
     7     1     2   ar
     8    27    26   ar
     9    27    28   ar
    10    26    25   ar
    11     6     5   ar
    12    43    44    3
    13    44    35    1
    14     8     2    1
    15     2     3   ar
    16    25    17    1
    17    25    24   ar
    18    35    40   ar
    19    35    36   ar
    20    18    13   ar
    21    18    17   ar
    22    21    13    1
    23    21    20    3
    24    13    14   ar
    25    28    36    1
    26    28    29   ar
    27    17    16   ar
    28     5    14    1
    29     5     4   ar
    30    14    15   ar
    31    16    15   ar
    32    16    22    1
    33    40    39   ar
    34    15    19    1
    35    36    37   ar
    36    22    23    1
    37    39    42    1
    38    39    38   ar
    39    37    38   ar
    40    37    41    1
    41    38    45    1
    42    45    46    1
    43    24    29   ar
    44    24    32    1
    45     3     4   ar
    46     3     7    1
    47     4    11    1
    48    32    31    3
    49    11    12    1
