@<TRIPOS>MOLECULE
mol_data/opt/m06hf/geoms/mol2/6df6df6df-6df-.out
 46 49 0 0 0
SMALL
GASTEIGER

@<TRIPOS>ATOM
      1 C          -4.2663   -2.1531   -0.5299 C.ar    1  LIG1        0.1410
      2 C          -2.9801   -2.2242    0.0119 C.ar    1  LIG1       -0.0223
      3 C          -2.4478   -1.0838    0.5866 C.ar    1  LIG1       -0.0154
      4 C          -3.2121    0.0817    0.5958 C.ar    1  LIG1        0.1429
      5 C          -4.4871    0.0492    0.0092 C.ar    1  LIG1        0.1165
      6 N          -4.9989   -1.0490   -0.5309 N.ar    1  LIG1       -0.2326
      7 H          -1.4648   -1.0668    1.0367 H       1  LIG1        0.0655
      8 H          -2.4305   -3.1544   -0.0203 H       1  LIG1        0.0647
      9 N          -5.2712   -4.2803   -1.6426 N.1     1  LIG1       -0.1893
     10 C          -4.8506   -3.3343   -1.1504 C.1     1  LIG1        0.1191
     11 O          -2.6886    1.1837    1.1666 O.3     1  LIG1       -0.5046
     12 H          -3.3518    1.8762    1.2831 H       1  LIG1        0.2922
     13 C          -6.6463    1.2699    0.4779 C.ar    1  LIG1        0.1502
     14 C          -5.3361    1.2766   -0.0256 C.ar    1  LIG1        0.0433
     15 C          -4.8701    2.4577   -0.5854 C.ar    1  LIG1       -0.0060
     16 C          -5.6976    3.5815   -0.6211 C.ar    1  LIG1        0.1435
     17 C          -6.9764    3.4763   -0.0485 C.ar    1  LIG1        0.1166
     18 N          -7.4314    2.3350    0.4578 N.ar    1  LIG1       -0.2319
     19 H          -3.8863    2.5249   -1.0346 H       1  LIG1        0.0662
     20 N          -7.6347   -0.8531    1.6121 N.1     1  LIG1       -0.1893
     21 C          -7.2001    0.0734    1.0960 C.1     1  LIG1        0.1198
     22 O          -5.2190    4.6724   -1.2322 O.3     1  LIG1       -0.5046
     23 H          -5.8456    5.4069   -1.2516 H       1  LIG1        0.2922
     24 C          -7.6045    5.8699    0.5186 C.ar    1  LIG1        0.1502
     25 C          -7.9311    4.6225   -0.0210 C.ar    1  LIG1        0.0433
     26 C          -9.2282    4.4488   -0.4986 C.ar    1  LIG1       -0.0060
     27 C         -10.1120    5.5165   -0.4625 C.ar    1  LIG1        0.1435
     28 C          -9.6609    6.7533    0.0445 C.ar    1  LIG1        0.1166
     29 N          -8.4442    6.9004    0.5374 N.ar    1  LIG1       -0.2319
     30 H          -9.5256    3.4809   -0.8857 H       1  LIG1        0.0662
     31 N          -5.2668    6.1798    1.6205 N.1     1  LIG1       -0.1893
     32 C          -6.3027    6.0738    1.1410 C.1     1  LIG1        0.1198
     33 O         -11.3852    5.4446   -0.8984 O.3     1  LIG1       -0.5046
     34 H         -11.5808    4.5837   -1.2873 H       1  LIG1        0.2922
     35 C         -10.0460    9.1629   -0.5057 C.ar    1  LIG1        0.1495
     36 C         -10.5296    7.9647    0.0233 C.ar    1  LIG1        0.0432
     37 C         -11.8227    7.9526    0.5400 C.ar    1  LIG1       -0.0066
     38 C         -12.5534    9.1322    0.5269 C.ar    1  LIG1        0.1356
     39 C         -11.9671   10.2858   -0.0129 C.ar    1  LIG1        0.0705
     40 N         -10.7490   10.2936   -0.5222 N.ar    1  LIG1       -0.2403
     41 H         -12.2398    7.0377    0.9434 H       1  LIG1        0.0662
     42 H         -12.5305   11.2102   -0.0237 H       1  LIG1        0.0867
     43 N          -7.7133    9.2163   -1.6621 N.1     1  LIG1       -0.1893
     44 C          -8.7318    9.2076   -1.1353 C.1     1  LIG1        0.1198
     45 O         -13.8088    9.2467    1.0091 O.3     1  LIG1       -0.5052
     46 H         -14.1334    8.4083    1.3546 H       1  LIG1        0.2922
@<TRIPOS>BOND
     1    43    44    3
     2     9    10    3
     3    34    33    1
     4    23    22    1
     5    22    16    1
     6    10     1    1
     7    44    35    1
     8    19    15    1
     9    33    27    1
    10    30    26    1
    11    16    15   ar
    12    16    17   ar
    13    15    14   ar
    14     6     1   ar
    15     6     5   ar
    16     1     2   ar
    17    40    35   ar
    18    40    39   ar
    19    35    36   ar
    20    26    27   ar
    21    26    25   ar
    22    27    28   ar
    23    17    25    1
    24    17    18   ar
    25    14     5    1
    26    14    13   ar
    27    42    39    1
    28    25    24   ar
    29     8     2    1
    30    39    38   ar
    31     5     4   ar
    32     2     3   ar
    33    36    28    1
    34    36    37   ar
    35    28    29   ar
    36    18    13   ar
    37    13    21    1
    38    24    29   ar
    39    24    32    1
    40    38    37   ar
    41    38    45    1
    42    37    41    1
    43     3     4   ar
    44     3     7    1
    45     4    11    1
    46    45    46    1
    47    21    20    3
    48    32    31    3
    49    11    12    1
