@<TRIPOS>MOLECULE
mol_data/opt/m06hf/geoms/mol2/6df6df-6df-6df-.out
 46 49 0 0 0
SMALL
GASTEIGER

@<TRIPOS>ATOM
      1 C          -4.4157   -2.1636    0.4332 C.ar    1  LIG1        0.1410
      2 C          -3.1046   -2.3175   -0.0161 C.ar    1  LIG1       -0.0223
      3 C          -2.4638   -1.1946   -0.5155 C.ar    1  LIG1       -0.0154
      4 C          -3.1324    0.0267   -0.5271 C.ar    1  LIG1        0.1429
      5 C          -4.4419    0.0766   -0.0199 C.ar    1  LIG1        0.1165
      6 N          -5.0678   -1.0088    0.4270 N.ar    1  LIG1       -0.2326
      7 H          -1.4596   -1.2360   -0.9156 H       1  LIG1        0.0655
      8 H          -2.6274   -3.2866    0.0160 H       1  LIG1        0.0647
      9 N          -5.7028   -4.2495    1.3130 N.1     1  LIG1       -0.1893
     10 C          -5.1485   -3.3216    0.9318 C.1     1  LIG1        0.1191
     11 O          -2.5539    1.1071   -1.1162 O.3     1  LIG1       -0.5046
     12 H          -2.1033    1.6655   -0.4630 H       1  LIG1        0.2922
     13 C          -4.8273    2.5651    0.4482 C.ar    1  LIG1        0.1502
     14 C          -5.2682    1.3214   -0.0120 C.ar    1  LIG1        0.0433
     15 C          -6.5941    1.2387   -0.4269 C.ar    1  LIG1       -0.0060
     16 C          -7.3903    2.3740   -0.4105 C.ar    1  LIG1        0.1435
     17 C          -6.8321    3.5873    0.0369 C.ar    1  LIG1        0.1166
     18 N          -5.5843    3.6544    0.4677 N.ar    1  LIG1       -0.2319
     19 H          -6.9850    0.2819   -0.7538 H       1  LIG1        0.0662
     20 N          -2.4140    2.7520    1.4023 N.1     1  LIG1       -0.1893
     21 C          -3.4855    2.7080    0.9932 C.1     1  LIG1        0.1198
     22 O          -8.6822    2.3747   -0.8054 O.3     1  LIG1       -0.5046
     23 H          -8.9351    1.5215   -1.1773 H       1  LIG1        0.2922
     24 C          -7.0568    6.0435   -0.4467 C.ar    1  LIG1        0.1502
     25 C          -7.6151    4.8554    0.0378 C.ar    1  LIG1        0.0433
     26 C          -8.9146    4.9108    0.5303 C.ar    1  LIG1       -0.0060
     27 C          -9.5880    6.1246    0.5379 C.ar    1  LIG1        0.1435
     28 C          -8.9324    7.2655    0.0444 C.ar    1  LIG1        0.1166
     29 N          -7.7016    7.2031   -0.4402 N.ar    1  LIG1       -0.2319
     30 H          -9.3922    4.0124    0.9028 H       1  LIG1        0.0662
     31 N          -4.7140    6.0463   -1.5811 N.1     1  LIG1       -0.1893
     32 C          -5.7341    6.0513   -1.0586 C.1     1  LIG1        0.1198
     33 O         -10.8523    6.2636    0.9986 O.3     1  LIG1       -0.5046
     34 H         -11.1660    5.4492    1.4078 H       1  LIG1        0.2922
     35 C          -8.9321    9.7356    0.5086 C.ar    1  LIG1        0.1495
     36 C          -9.5967    8.6005    0.0399 C.ar    1  LIG1        0.0432
     37 C         -10.8874    8.7627   -0.4607 C.ar    1  LIG1       -0.0066
     38 C         -11.4379   10.0354   -0.4888 C.ar    1  LIG1        0.1356
     39 C         -10.6783   11.1108   -0.0085 C.ar    1  LIG1        0.0705
     40 N          -9.4626   10.9578    0.4829 N.ar    1  LIG1       -0.2403
     41 H         -11.4421    7.9036   -0.8183 H       1  LIG1        0.0662
     42 H         -11.0976   12.1084   -0.0310 H       1  LIG1        0.0867
     43 N          -6.5930    9.5614    1.6380 N.1     1  LIG1       -0.1893
     44 C          -7.6125    9.6312    1.1183 C.1     1  LIG1        0.1198
     45 O         -12.6749   10.3123   -0.9575 O.3     1  LIG1       -0.5052
     46 H         -13.1217    9.5153   -1.2615 H       1  LIG1        0.2922
@<TRIPOS>BOND
     1    31    32    3
     2    46    45    1
     3    23    22    1
     4    11     4    1
     5    11    12    1
     6    32    24    1
     7    45    38    1
     8     7     3    1
     9    41    37    1
    10    22    16    1
    11    19    15    1
    12     4     3   ar
    13     4     5   ar
    14     3     2   ar
    15    38    37   ar
    16    38    39   ar
    17    37    36   ar
    18    24    29   ar
    19    24    25   ar
    20    29    28   ar
    21    15    16   ar
    22    15    14   ar
    23    16    17   ar
    24    42    39    1
    25     5    14    1
    26     5     6   ar
    27     2     8    1
    28     2     1   ar
    29    14    13   ar
    30    39    40   ar
    31    17    25    1
    32    17    18   ar
    33    25    26   ar
    34    36    28    1
    35    36    35   ar
    36    28    27   ar
    37     6     1   ar
    38     1    10    1
    39    13    18   ar
    40    13    21    1
    41    40    35   ar
    42    35    44    1
    43    26    27   ar
    44    26    30    1
    45    27    33    1
    46    10     9    3
    47    21    20    3
    48    33    34    1
    49    44    43    3
