@<TRIPOS>MOLECULE
mol_data/opt/m06hf/geoms/mol2/6df6df-6df-6df.out
 46 49 0 0 0
SMALL
GASTEIGER

@<TRIPOS>ATOM
      1 C          -3.8806   -1.7986    1.1520 C.ar    1  LIG1        0.1410
      2 C          -3.0316   -2.2781    0.1548 C.ar    1  LIG1       -0.0223
      3 C          -2.9440   -1.5428   -1.0162 C.ar    1  LIG1       -0.0154
      4 C          -3.6722   -0.3625   -1.1411 C.ar    1  LIG1        0.1429
      5 C          -4.4670    0.0509   -0.0585 C.ar    1  LIG1        0.1165
      6 N          -4.5788   -0.6762    1.0501 N.ar    1  LIG1       -0.2326
      7 H          -2.3383   -1.8643   -1.8529 H       1  LIG1        0.0655
      8 H          -2.4851   -3.1990    0.3000 H       1  LIG1        0.0647
      9 N          -4.1604   -3.1798    3.3416 N.1     1  LIG1       -0.1893
     10 C          -4.0451   -2.5580    2.3859 C.1     1  LIG1        0.1191
     11 O          -3.6790    0.2983   -2.3308 O.3     1  LIG1       -0.5046
     12 H          -3.0306    1.0206   -2.3330 H       1  LIG1        0.2922
     13 C          -4.8787    2.5396   -0.5115 C.ar    1  LIG1        0.1502
     14 C          -5.3125    1.2828   -0.0824 C.ar    1  LIG1        0.0433
     15 C          -6.6109    1.2026    0.4149 C.ar    1  LIG1       -0.0060
     16 C          -7.4129    2.3338    0.4302 C.ar    1  LIG1        0.1435
     17 C          -6.8835    3.5459   -0.0562 C.ar    1  LIG1        0.1166
     18 N          -5.6435    3.6242   -0.5059 N.ar    1  LIG1       -0.2319
     19 H          -6.9694    0.2543    0.7983 H       1  LIG1        0.0662
     20 N          -2.4196    2.8199   -1.3150 N.1     1  LIG1       -0.1893
     21 C          -3.5070    2.7335   -0.9567 C.1     1  LIG1        0.1198
     22 O          -8.6795    2.3371    0.8914 O.3     1  LIG1       -0.5046
     23 H          -8.9092    1.4972    1.3062 H       1  LIG1        0.2922
     24 C          -7.0959    6.0140    0.3660 C.ar    1  LIG1        0.1502
     25 C          -7.6756    4.8072   -0.0504 C.ar    1  LIG1        0.0433
     26 C          -9.0025    4.8541   -0.4602 C.ar    1  LIG1       -0.0060
     27 C          -9.6792    6.0688   -0.4836 C.ar    1  LIG1        0.1435
     28 C          -8.9917    7.2252   -0.0835 C.ar    1  LIG1        0.1166
     29 N          -7.7359    7.1731    0.3529 N.ar    1  LIG1       -0.2319
     30 H          -9.5340    3.9587   -0.7528 H       1  LIG1        0.0662
     31 N          -4.6980    6.1093    1.3793 N.1     1  LIG1       -0.1893
     32 C          -5.7426    6.0552    0.9111 C.1     1  LIG1        0.1198
     33 O         -11.0043    6.0863   -0.7965 O.3     1  LIG1       -0.5046
     34 H         -11.1376    6.3481   -1.7210 H       1  LIG1        0.2922
     35 C         -10.3715    9.1511   -1.0525 C.ar    1  LIG1        0.1495
     36 C          -9.6196    8.5799   -0.0197 C.ar    1  LIG1        0.0432
     37 C          -9.3974    9.3583    1.1109 C.ar    1  LIG1       -0.0066
     38 C          -9.9546   10.6290    1.1744 C.ar    1  LIG1        0.1356
     39 C         -10.7141   11.0887    0.0906 C.ar    1  LIG1        0.0705
     40 N         -10.9060   10.3661   -0.9991 N.ar    1  LIG1       -0.2403
     41 H          -8.7925    8.9870    1.9272 H       1  LIG1        0.0662
     42 H         -11.1649   12.0755    0.1104 H       1  LIG1        0.0867
     43 N         -10.7057    7.8071   -3.2569 N.1     1  LIG1       -0.1893
     44 C         -10.5677    8.4272   -2.3000 C.1     1  LIG1        0.1198
     45 O          -9.7400   11.3677    2.2807 O.3     1  LIG1       -0.5052
     46 H         -10.1462   12.2392    2.2122 H       1  LIG1        0.2922
@<TRIPOS>BOND
     1    43    44    3
     2    12    11    1
     3    11     4    1
     4    44    35    1
     5     7     3    1
     6    34    33    1
     7    20    21    3
     8     4     3   ar
     9     4     5   ar
    10    35    40   ar
    11    35    36   ar
    12     3     2   ar
    13    40    39   ar
    14    21    13    1
    15    33    27    1
    16    30    26    1
    17    13    18   ar
    18    13    14   ar
    19    18    17   ar
    20    27    26   ar
    21    27    28   ar
    22    26    25   ar
    23    28    36    1
    24    28    29   ar
    25    14     5    1
    26    14    15   ar
    27     5     6   ar
    28    17    25    1
    29    17    16   ar
    30    25    24   ar
    31    36    37   ar
    32    39    42    1
    33    39    38   ar
    34     2     8    1
    35     2     1   ar
    36    29    24   ar
    37    24    32    1
    38    15    16   ar
    39    15    19    1
    40    16    22    1
    41    22    23    1
    42    32    31    3
    43     6     1   ar
    44    37    38   ar
    45    37    41    1
    46     1    10    1
    47    38    45    1
    48    46    45    1
    49    10     9    3
