@<TRIPOS>MOLECULE
mol_data/opt/m06hf/geoms/mol2/6df6df6df6df.out
 46 49 0 0 0
SMALL
GASTEIGER

@<TRIPOS>ATOM
      1 C          -3.5395   -1.5553   -1.4284 C.ar    1  LIG1        0.1410
      2 C          -2.9556   -2.1842   -0.3258 C.ar    1  LIG1       -0.0223
      3 C          -3.2025   -1.6633    0.9321 C.ar    1  LIG1       -0.0154
      4 C          -4.0153   -0.5368    1.0417 C.ar    1  LIG1        0.1429
      5 C          -4.5390    0.0274   -0.1315 C.ar    1  LIG1        0.1165
      6 N          -4.3103   -0.4810   -1.3348 N.ar    1  LIG1       -0.2326
      7 H          -2.7975   -2.1057    1.8315 H       1  LIG1        0.0655
      8 H          -2.3361   -3.0585   -0.4674 H       1  LIG1        0.0647
      9 N          -3.0683   -2.5147   -3.8010 N.1     1  LIG1       -0.1893
     10 C          -3.2940   -2.0779   -2.7656 C.1     1  LIG1        0.1191
     11 O          -4.2568   -0.0374    2.2700 O.3     1  LIG1       -0.5046
     12 H          -4.9840    0.5984    2.2574 H       1  LIG1        0.2922
     13 C          -6.7075    1.2391   -0.5734 C.ar    1  LIG1        0.1502
     14 C          -5.4004    1.2461   -0.0619 C.ar    1  LIG1        0.0433
     15 C          -4.9326    2.4240    0.5068 C.ar    1  LIG1       -0.0060
     16 C          -5.7631    3.5433    0.5288 C.ar    1  LIG1        0.1435
     17 C          -7.0439    3.4302   -0.0285 C.ar    1  LIG1        0.1166
     18 N          -7.4988    2.3003   -0.5537 N.ar    1  LIG1       -0.2319
     19 H          -3.9326    2.4990    0.9168 H       1  LIG1        0.0662
     20 N          -7.7092   -0.9532   -1.5537 N.1     1  LIG1       -0.1893
     21 C          -7.2667    0.0178   -1.1353 C.1     1  LIG1        0.1198
     22 O          -5.2955    4.6771    1.0805 O.3     1  LIG1       -0.5046
     23 H          -5.9914    5.3416    1.1692 H       1  LIG1        0.2922
     24 C          -9.1642    4.5617    0.7165 C.ar    1  LIG1        0.1502
     25 C          -7.9714    4.6017   -0.0204 C.ar    1  LIG1        0.0433
     26 C          -7.6824    5.7594   -0.7306 C.ar    1  LIG1       -0.0060
     27 C          -8.5957    6.8125   -0.7027 C.ar    1  LIG1        0.1435
     28 C          -9.7704    6.6572    0.0474 C.ar    1  LIG1        0.1166
     29 N         -10.0324    5.5601    0.7457 N.ar    1  LIG1       -0.2319
     30 H          -6.7782    5.8555   -1.3195 H       1  LIG1        0.0662
     31 N          -9.6824    2.4629    2.1642 N.1     1  LIG1       -0.1893
     32 C          -9.4744    3.3879    1.5201 C.1     1  LIG1        0.1198
     33 O          -8.3081    7.9291   -1.3942 O.3     1  LIG1       -0.5046
     34 H          -8.9545    8.6258   -1.2189 H       1  LIG1        0.2922
     35 C         -11.0898    8.3822    1.3196 C.ar    1  LIG1        0.1495
     36 C         -10.7764    7.7602    0.1037 C.ar    1  LIG1        0.0432
     37 C         -11.4368    8.1932   -1.0406 C.ar    1  LIG1       -0.0066
     38 C         -12.3878    9.2047   -0.9202 C.ar    1  LIG1        0.1356
     39 C         -12.6358    9.7448    0.3460 C.ar    1  LIG1        0.0705
     40 N         -11.9965    9.3433    1.4346 N.ar    1  LIG1       -0.2403
     41 H         -11.2546    7.7431   -2.0092 H       1  LIG1        0.0662
     42 H         -13.3748   10.5287    0.4758 H       1  LIG1        0.0867
     43 N          -9.7663    7.7151    3.4587 N.1     1  LIG1       -0.1893
     44 C         -10.3708    8.0032    2.5284 C.1     1  LIG1        0.1198
     45 O         -13.0243    9.6140   -2.0338 O.3     1  LIG1       -0.5052
     46 H         -13.6980   10.2760   -1.8401 H       1  LIG1        0.2922
@<TRIPOS>BOND
     1     9    10    3
     2    10     1    1
     3    45    46    1
     4    45    38    1
     5    41    37    1
     6    20    21    3
     7     1     6   ar
     8     1     2   ar
     9    33    34    1
    10    33    27    1
    11     6     5   ar
    12    30    26    1
    13    21    13    1
    14    37    38   ar
    15    37    36   ar
    16    38    39   ar
    17    26    27   ar
    18    26    25   ar
    19    27    28   ar
    20    13    18   ar
    21    13    14   ar
    22    18    17   ar
    23     8     2    1
    24     2     3   ar
    25     5    14    1
    26     5     4   ar
    27    14    15   ar
    28    17    25    1
    29    17    16   ar
    30    25    24   ar
    31    28    36    1
    32    28    29   ar
    33    36    35   ar
    34    39    42    1
    35    39    40   ar
    36    15    16   ar
    37    15    19    1
    38    16    22    1
    39    24    29   ar
    40    24    32    1
    41     3     4   ar
    42     3     7    1
    43     4    11    1
    44    22    23    1
    45    35    40   ar
    46    35    44    1
    47    32    31    3
    48    12    11    1
    49    44    43    3
