@<TRIPOS>MOLECULE
mol_data/opt/m06hf/geoms/mol2/6df6df-6df.out
 35 37 0 0 0
SMALL
GASTEIGER

@<TRIPOS>ATOM
      1 C          -4.2335   -1.9323   -0.8301 C.ar    1  LIG1        0.1410
      2 C          -3.1423   -2.2086   -0.0063 C.ar    1  LIG1       -0.0223
      3 C          -2.7594   -1.2291    0.8958 C.ar    1  LIG1       -0.0154
      4 C          -3.4506   -0.0212    0.9287 C.ar    1  LIG1        0.1429
      5 C          -4.5182    0.1653    0.0343 C.ar    1  LIG1        0.1165
      6 N          -4.9046   -0.7889   -0.8084 N.ar    1  LIG1       -0.2326
      7 H          -1.9465   -1.3780    1.5940 H       1  LIG1        0.0655
      8 H          -2.6374   -3.1619   -0.0710 H       1  LIG1        0.0647
      9 N          -5.0399   -3.7599   -2.5006 N.1     1  LIG1       -0.1893
     10 C          -4.6972   -2.9433   -1.7732 C.1     1  LIG1        0.1191
     11 O          -3.1464    0.9035    1.8805 O.3     1  LIG1       -0.5046
     12 H          -2.5207    1.5605    1.5377 H       1  LIG1        0.2922
     13 C          -4.8431    2.7029   -0.0066 C.ar    1  LIG1        0.1502
     14 C          -5.3547    1.4030    0.0074 C.ar    1  LIG1        0.0433
     15 C          -6.7374    1.2695   -0.0864 C.ar    1  LIG1       -0.0060
     16 C          -7.5318    2.4058   -0.1309 C.ar    1  LIG1        0.1435
     17 C          -6.9127    3.6691   -0.0466 C.ar    1  LIG1        0.1166
     18 N          -5.5969    3.7971   -0.0268 N.ar    1  LIG1       -0.2319
     19 H          -7.1726    0.2793   -0.1511 H       1  LIG1        0.0662
     20 N          -2.2626    3.0408   -0.0549 N.1     1  LIG1       -0.1893
     21 C          -3.4048    2.9239   -0.0391 C.1     1  LIG1        0.1198
     22 O          -8.8665    2.3762   -0.2951 O.3     1  LIG1       -0.5046
     23 H          -9.2493    1.5390   -0.0075 H       1  LIG1        0.2922
     24 C          -8.7833    5.1298    0.8549 C.ar    1  LIG1        0.1495
     25 C          -7.7123    4.9285   -0.0272 C.ar    1  LIG1        0.0432
     26 C          -7.3603    5.9740   -0.8694 C.ar    1  LIG1       -0.0066
     27 C          -8.1017    7.1493   -0.8233 C.ar    1  LIG1        0.1356
     28 C          -9.1684    7.2365    0.0766 C.ar    1  LIG1        0.0705
     29 N          -9.4897    6.2522    0.9015 N.ar    1  LIG1       -0.2403
     30 H          -6.5230    5.8838   -1.5486 H       1  LIG1        0.0662
     31 H          -9.7702    8.1378    0.1345 H       1  LIG1        0.0867
     32 N          -9.3892    3.2939    2.5999 N.1     1  LIG1       -0.1893
     33 C          -9.1408    4.1073    1.8303 C.1     1  LIG1        0.1198
     34 O          -7.7574    8.1580   -1.6509 O.3     1  LIG1       -0.5052
     35 H          -8.3279    8.9254   -1.5283 H       1  LIG1        0.2922
@<TRIPOS>BOND
     1     9    10    3
     2    10     1    1
     3    34    35    1
     4    34    27    1
     5    30    26    1
     6    26    27   ar
     7    26    25   ar
     8     1     6   ar
     9     1     2   ar
    10    27    28   ar
    11     6     5   ar
    12    22    16    1
    13    22    23    1
    14    19    15    1
    15    16    15   ar
    16    16    17   ar
    17    15    14   ar
    18     8     2    1
    19    20    21    3
    20    17    25    1
    21    17    18   ar
    22    21    13    1
    23    25    24   ar
    24    18    13   ar
    25    13    14   ar
    26     2     3   ar
    27    14     5    1
    28     5     4   ar
    29    28    31    1
    30    28    29   ar
    31    24    29   ar
    32    24    33    1
    33     3     4   ar
    34     3     7    1
    35     4    11    1
    36    12    11    1
    37    33    32    3
