@<TRIPOS>MOLECULE
mol_data/opt/m06hf/geoms/mol2/6df6df6df-6df.out
 46 49 0 0 0
SMALL
GASTEIGER

@<TRIPOS>ATOM
      1 C          -4.5021   -2.2455   -0.1064 C.ar    1  LIG1        0.1410
      2 C          -3.1142   -2.3004    0.0490 C.ar    1  LIG1       -0.0223
      3 C          -2.4245   -1.1098    0.1951 C.ar    1  LIG1       -0.0154
      4 C          -3.1408    0.0854    0.1763 C.ar    1  LIG1        0.1429
      5 C          -4.5315    0.0298   -0.0008 C.ar    1  LIG1        0.1165
      6 N          -5.1911   -1.1139   -0.1288 N.ar    1  LIG1       -0.2326
      7 H          -1.3528   -1.0746    0.3344 H       1  LIG1        0.0655
      8 H          -2.6089   -3.2557    0.0582 H       1  LIG1        0.0647
      9 N          -5.8102   -4.4745   -0.4106 N.1     1  LIG1       -0.1893
     10 C          -5.2551   -3.4812   -0.2713 C.1     1  LIG1        0.1191
     11 O          -2.4626    1.2412    0.3258 O.3     1  LIG1       -0.5046
     12 H          -3.0593    1.9801    0.5000 H       1  LIG1        0.2922
     13 C          -6.4320    1.4795    0.8089 C.ar    1  LIG1        0.1502
     14 C          -5.3399    1.2841   -0.0474 C.ar    1  LIG1        0.0433
     15 C          -5.0737    2.2908   -0.9697 C.ar    1  LIG1       -0.0060
     16 C          -5.8717    3.4316   -1.0050 C.ar    1  LIG1        0.1435
     17 C          -6.9305    3.5305   -0.0883 C.ar    1  LIG1        0.1166
     18 N          -7.1989    2.5583    0.7807 N.ar    1  LIG1       -0.2319
     19 H          -4.2793    2.1909   -1.7004 H       1  LIG1        0.0662
     20 N          -7.0059   -0.2828    2.6374 N.1     1  LIG1       -0.1893
     21 C          -6.7626    0.4820    1.8194 C.1     1  LIG1        0.1198
     22 O          -5.6771    4.3505   -1.9870 O.3     1  LIG1       -0.5046
     23 H          -5.1523    5.1018   -1.6683 H       1  LIG1        0.2922
     24 C          -7.4939    6.0228   -0.0523 C.ar    1  LIG1        0.1502
     25 C          -7.8820    4.6811   -0.0560 C.ar    1  LIG1        0.0433
     26 C          -9.2443    4.4177    0.0587 C.ar    1  LIG1       -0.0060
     27 C         -10.1402    5.4757    0.1113 C.ar    1  LIG1        0.1435
     28 C          -9.6427    6.7915    0.0243 C.ar    1  LIG1        0.1166
     29 N          -8.3446    7.0423   -0.0163 N.ar    1  LIG1       -0.2319
     30 H          -9.5854    3.3917    0.1317 H       1  LIG1        0.0662
     31 N          -4.9494    6.5705   -0.0849 N.1     1  LIG1       -0.1893
     32 C          -6.0797    6.3681   -0.0575 C.1     1  LIG1        0.1198
     33 O         -11.4639    5.3192    0.2909 O.3     1  LIG1       -0.5046
     34 H         -11.7812    4.4754   -0.0533 H       1  LIG1        0.2922
     35 C         -11.6560    8.0807   -0.8328 C.ar    1  LIG1        0.1495
     36 C         -10.5549    7.9720    0.0276 C.ar    1  LIG1        0.0432
     37 C         -10.2841    9.0386    0.8735 C.ar    1  LIG1       -0.0066
     38 C         -11.1318   10.1405    0.8534 C.ar    1  LIG1        0.1356
     39 C         -12.2180   10.1369   -0.0274 C.ar    1  LIG1        0.0705
     40 N         -12.4623    9.1343   -0.8566 N.ar    1  LIG1       -0.2403
     41 H          -9.4302    9.0204    1.5377 H       1  LIG1        0.0662
     42 H         -12.9014   10.9790   -0.0659 H       1  LIG1        0.0867
     43 N         -12.1260    6.2014   -2.5731 N.1     1  LIG1       -0.1893
     44 C         -11.9383    7.0342   -1.8074 C.1     1  LIG1        0.1198
     45 O         -10.8691   11.1665    1.6889 O.3     1  LIG1       -0.5052
     46 H         -11.5122   11.8776    1.5888 H       1  LIG1        0.2922
@<TRIPOS>BOND
     1    43    44    3
     2    22    23    1
     3    22    16    1
     4    44    35    1
     5    19    15    1
     6    16    15   ar
     7    16    17   ar
     8    15    14   ar
     9    40    35   ar
    10    40    39   ar
    11    35    36   ar
    12     9    10    3
    13    10     1    1
    14     6     1   ar
    15     6     5   ar
    16     1     2   ar
    17    17    25    1
    18    17    18   ar
    19    31    32    3
    20    42    39    1
    21    32    24    1
    22    25    24   ar
    23    25    26   ar
    24    34    33    1
    25    24    29   ar
    26    14     5    1
    27    14    13   ar
    28    39    38   ar
    29    29    28   ar
    30     5     4   ar
    31    28    36    1
    32    28    27   ar
    33    36    37   ar
    34     2     8    1
    35     2     3   ar
    36    26    27   ar
    37    26    30    1
    38    27    33    1
    39     4     3   ar
    40     4    11    1
    41     3     7    1
    42    11    12    1
    43    18    13   ar
    44    13    21    1
    45    38    37   ar
    46    38    45    1
    47    37    41    1
    48    46    45    1
    49    21    20    3
