@<TRIPOS>MOLECULE
mol_data/opt/m06hf/geoms/mol2/6df6df-6df6df-.out
 46 49 0 0 0
SMALL
GASTEIGER

@<TRIPOS>ATOM
      1 C          -3.8702   -1.8047    1.0961 C.ar    1  LIG1        0.1410
      2 C          -3.1053   -2.2934    0.0371 C.ar    1  LIG1       -0.0223
      3 C          -3.0895   -1.5534   -1.1345 C.ar    1  LIG1       -0.0154
      4 C          -3.8039   -0.3603   -1.1988 C.ar    1  LIG1        0.1429
      5 C          -4.5114    0.0598   -0.0600 C.ar    1  LIG1        0.1165
      6 N          -4.5550   -0.6701    1.0511 N.ar    1  LIG1       -0.2326
      7 H          -2.5529   -1.8828   -2.0142 H       1  LIG1        0.0655
      8 H          -2.5678   -3.2257    0.1376 H       1  LIG1        0.0647
      9 N          -4.0005   -3.1900    3.2970 N.1     1  LIG1       -0.1893
     10 C          -3.9520   -2.5666    2.3366 C.1     1  LIG1        0.1191
     11 O          -3.8869    0.3193   -2.3758 O.3     1  LIG1       -0.5046
     12 H          -3.1768    0.9761   -2.4490 H       1  LIG1        0.2922
     13 C          -4.8844    2.5566   -0.4751 C.ar    1  LIG1        0.1502
     14 C          -5.3280    1.3105   -0.0228 C.ar    1  LIG1        0.0433
     15 C          -6.5864    1.2657    0.5705 C.ar    1  LIG1       -0.0060
     16 C          -7.3516    2.4214    0.6381 C.ar    1  LIG1        0.1435
     17 C          -6.8376    3.6062    0.0762 C.ar    1  LIG1        0.1166
     18 N          -5.6172    3.6637   -0.4298 N.ar    1  LIG1       -0.2319
     19 H          -6.9386    0.3331    0.9956 H       1  LIG1        0.0662
     20 N          -2.4637    2.7803   -1.4048 N.1     1  LIG1       -0.1893
     21 C          -3.5340    2.7125   -0.9949 C.1     1  LIG1        0.1198
     22 O          -8.5473    2.4921    1.2468 O.3     1  LIG1       -0.5046
     23 H          -8.9331    1.6212    1.3957 H       1  LIG1        0.2922
     24 C          -8.9437    4.9638   -0.3623 C.ar    1  LIG1        0.1502
     25 C          -7.6199    4.8753    0.0856 C.ar    1  LIG1        0.0433
     26 C          -7.0114    6.0569    0.4879 C.ar    1  LIG1       -0.0060
     27 C          -7.7359    7.2430    0.4941 C.ar    1  LIG1        0.1435
     28 C          -9.0802    7.2074    0.0861 C.ar    1  LIG1        0.1166
     29 N          -9.6430    6.0887   -0.3632 N.ar    1  LIG1       -0.2319
     30 H          -5.9699    6.0699    0.7826 H       1  LIG1        0.0662
     31 N         -10.1122    2.8819   -1.4046 N.1     1  LIG1       -0.1893
     32 C          -9.6135    3.8006   -0.9338 C.1     1  LIG1        0.1198
     33 O          -7.1081    8.4118    0.7960 O.3     1  LIG1       -0.5046
     34 H          -7.2257    8.6357    1.7330 H       1  LIG1        0.2922
     35 C         -10.0749    9.3486    1.0641 C.ar    1  LIG1        0.1495
     36 C          -9.9543    8.4176    0.0320 C.ar    1  LIG1        0.0432
     37 C         -10.7506    8.6103   -1.0974 C.ar    1  LIG1       -0.0066
     38 C         -11.5794    9.7194   -1.1530 C.ar    1  LIG1        0.1356
     39 C         -11.5975   10.6092   -0.0657 C.ar    1  LIG1        0.0705
     40 N         -10.8704   10.4175    1.0163 N.ar    1  LIG1       -0.2403
     41 H         -10.7104    7.8854   -1.9021 H       1  LIG1        0.0662
     42 H         -12.2404   11.4794   -0.1047 H       1  LIG1        0.0867
     43 N          -8.7315    8.9747    3.2619 N.1     1  LIG1       -0.1893
     44 C          -9.3432    9.1613    2.3079 C.1     1  LIG1        0.1198
     45 O         -12.3833   10.0120   -2.1943 O.3     1  LIG1       -0.5052
     46 H         -12.3365    9.3373   -2.8809 H       1  LIG1        0.2922
@<TRIPOS>BOND
     1    46    45    1
     2    12    11    1
     3    11     4    1
     4    45    38    1
     5     7     3    1
     6    41    37    1
     7    20    21    3
     8    31    32    3
     9     4     3   ar
    10     4     5   ar
    11    38    37   ar
    12    38    39   ar
    13     3     2   ar
    14    37    36   ar
    15    21    13    1
    16    32    24    1
    17    13    18   ar
    18    13    14   ar
    19    18    17   ar
    20    29    24   ar
    21    29    28   ar
    22    24    25   ar
    23    42    39    1
    24    39    40   ar
    25     5    14    1
    26     5     6   ar
    27    14    15   ar
    28    36    28    1
    29    36    35   ar
    30     2     8    1
    31     2     1   ar
    32    17    25    1
    33    17    16   ar
    34    25    26   ar
    35    28    27   ar
    36    26    27   ar
    37    26    30    1
    38    27    33    1
    39    15    16   ar
    40    15    19    1
    41    16    22    1
    42    33    34    1
    43    40    35   ar
    44     6     1   ar
    45    35    44    1
    46     1    10    1
    47    22    23    1
    48    44    43    3
    49    10     9    3
