@<TRIPOS>MOLECULE
mol_data/opt/m06hf/geoms/mol2/6df6df.out
 24 25 0 0 0
SMALL
GASTEIGER

@<TRIPOS>ATOM
      1 C          -4.4477   -1.9895   -0.6366 C.ar    1  LIG1        0.1410
      2 C          -3.1481   -2.0925   -0.1345 C.ar    1  LIG1       -0.0223
      3 C          -2.5837   -0.9760    0.4574 C.ar    1  LIG1       -0.0154
      4 C          -3.3327    0.1970    0.5193 C.ar    1  LIG1        0.1429
      5 C          -4.6251    0.1975   -0.0278 C.ar    1  LIG1        0.1165
      6 N          -5.1663   -0.8769   -0.5852 N.ar    1  LIG1       -0.2326
      7 H          -1.5883   -0.9863    0.8790 H       1  LIG1        0.0655
      8 H          -2.6125   -3.0284   -0.2070 H       1  LIG1        0.0647
      9 N          -5.5107   -4.0814   -1.7622 N.1     1  LIG1       -0.1893
     10 C          -5.0656   -3.1488   -1.2663 C.1     1  LIG1        0.1191
     11 O          -2.7852    1.2805    1.1058 O.3     1  LIG1       -0.5046
     12 H          -3.4416    1.9782    1.2265 H       1  LIG1        0.2922
     13 C          -6.7096    1.4431    0.6473 C.ar    1  LIG1        0.1495
     14 C          -5.4592    1.4366    0.0137 C.ar    1  LIG1        0.0432
     15 C          -5.0283    2.6159   -0.5850 C.ar    1  LIG1       -0.0066
     16 C          -5.8584    3.7334   -0.5393 C.ar    1  LIG1        0.1356
     17 C          -7.0915    3.6260    0.1100 C.ar    1  LIG1        0.0705
     18 N          -7.5004    2.5077    0.6903 N.ar    1  LIG1       -0.2403
     19 H          -4.0818    2.6736   -1.1094 H       1  LIG1        0.0662
     20 H          -7.7644    4.4757    0.1601 H       1  LIG1        0.0867
     21 N          -7.5411   -0.6825    1.8978 N.1     1  LIG1       -0.1893
     22 C          -7.1857    0.2492    1.3332 C.1     1  LIG1        0.1198
     23 O          -5.4342    4.8688   -1.1298 O.3     1  LIG1       -0.5052
     24 H          -6.0913    5.5707   -1.0631 H       1  LIG1        0.2922
@<TRIPOS>BOND
     1     9    10    3
     2    10     1    1
     3    23    24    1
     4    23    16    1
     5    19    15    1
     6     1     6   ar
     7     1     2   ar
     8     6     5   ar
     9    15    16   ar
    10    15    14   ar
    11    16    17   ar
    12     8     2    1
    13     2     3   ar
    14     5    14    1
    15     5     4   ar
    16    14    13   ar
    17    17    20    1
    18    17    18   ar
    19     3     4   ar
    20     3     7    1
    21     4    11    1
    22    13    18   ar
    23    13    22    1
    24    11    12    1
    25    22    21    3
