@<TRIPOS>MOLECULE
mol_data/opt/m06hf/geoms/mol2/6df6df6df.out
 35 37 0 0 0
SMALL
GASTEIGER

@<TRIPOS>ATOM
      1 C          -4.0789   -1.8377   -1.1320 C.ar    1  LIG1        0.1410
      2 C          -3.0727   -2.1534   -0.2151 C.ar    1  LIG1       -0.0223
      3 C          -2.8443   -1.2809    0.8343 C.ar    1  LIG1       -0.0154
      4 C          -3.6208   -0.1276    0.9246 C.ar    1  LIG1        0.1429
      5 C          -4.5939    0.1036   -0.0596 C.ar    1  LIG1        0.1165
      6 N          -4.8193   -0.7409   -1.0570 N.ar    1  LIG1       -0.2326
      7 H          -2.0938   -1.4675    1.5898 H       1  LIG1        0.0655
      8 H          -2.5009   -3.0631   -0.3323 H       1  LIG1        0.0647
      9 N          -4.4876   -3.4682   -3.1188 N.1     1  LIG1       -0.1893
     10 C          -4.3331   -2.7369   -2.2494 C.1     1  LIG1        0.1191
     11 O          -3.3997    0.7173    1.9517 O.3     1  LIG1       -0.5046
     12 H          -4.1171    1.3582    2.0392 H       1  LIG1        0.2922
     13 C          -6.8342    1.2606    0.0476 C.ar    1  LIG1        0.1502
     14 C          -5.4341    1.3381   -0.0119 C.ar    1  LIG1        0.0433
     15 C          -4.8553    2.6010   -0.0329 C.ar    1  LIG1       -0.0060
     16 C          -5.6793    3.7246   -0.0138 C.ar    1  LIG1        0.1435
     17 C          -7.0674    3.5326    0.0236 C.ar    1  LIG1        0.1166
     18 N          -7.6187    2.3269    0.0646 N.ar    1  LIG1       -0.2319
     19 H          -3.7812    2.7328   -0.0818 H       1  LIG1        0.0662
     20 N          -8.0058   -1.0576    0.2012 N.1     1  LIG1       -0.1893
     21 C          -7.4936   -0.0360    0.1199 C.1     1  LIG1        0.1198
     22 O          -5.1050    4.9417   -0.0343 O.3     1  LIG1       -0.5046
     23 H          -5.7585    5.6389    0.1090 H       1  LIG1        0.2922
     24 C          -8.8719    4.9140    1.1086 C.ar    1  LIG1        0.1495
     25 C          -7.9895    4.7074    0.0397 C.ar    1  LIG1        0.0432
     26 C          -8.0089    5.6221   -1.0078 C.ar    1  LIG1       -0.0066
     27 C          -8.9120    6.6813   -0.9537 C.ar    1  LIG1        0.1356
     28 C          -9.7600    6.7837    0.1535 C.ar    1  LIG1        0.0705
     29 N          -9.7335    5.9212    1.1586 N.ar    1  LIG1       -0.2403
     30 H          -7.3669    5.5102   -1.8737 H       1  LIG1        0.0662
     31 H         -10.4803    7.5921    0.2235 H       1  LIG1        0.0867
     32 N          -8.7769    3.3279    3.1697 N.1     1  LIG1       -0.1893
     33 C          -8.8395    4.0188    2.2570 C.1     1  LIG1        0.1198
     34 O          -8.9274    7.5578   -1.9765 O.3     1  LIG1       -0.5052
     35 H          -9.6221    8.2184   -1.8717 H       1  LIG1        0.2922
@<TRIPOS>BOND
     1     9    10    3
     2    10     1    1
     3    34    35    1
     4    34    27    1
     5    30    26    1
     6     1     6   ar
     7     1     2   ar
     8     6     5   ar
     9    26    27   ar
    10    26    25   ar
    11    27    28   ar
    12     8     2    1
    13     2     3   ar
    14    19    15    1
    15     5    14    1
    16     5     4   ar
    17    22    16    1
    18    22    23    1
    19    15    16   ar
    20    15    14   ar
    21    16    17   ar
    22    14    13   ar
    23    17    25    1
    24    17    18   ar
    25    25    24   ar
    26    13    18   ar
    27    13    21    1
    28    21    20    3
    29    28    31    1
    30    28    29   ar
    31     3     4   ar
    32     3     7    1
    33     4    11    1
    34    24    29   ar
    35    24    33    1
    36    11    12    1
    37    33    32    3
