@<TRIPOS>MOLECULE
mol_data/opt/m06hf/geoms/mol2/6dg.out
 13 13 0 0 0
SMALL
GASTEIGER

@<TRIPOS>ATOM
      1 C          -4.5892   -2.0336    0.0001 C.ar    1  LIG1        0.1401
      2 C          -3.1970   -2.0469   -0.0000 C.ar    1  LIG1       -0.0248
      3 C          -2.5344   -0.8269   -0.0002 C.ar    1  LIG1       -0.0444
      4 C          -3.2841    0.3474   -0.0002 C.ar    1  LIG1        0.0230
      5 C          -4.6816    0.2384   -0.0002 C.ar    1  LIG1        0.0422
      6 N          -5.3193   -0.9218   -0.0000 N.ar    1  LIG1       -0.2436
      7 H          -1.4525   -0.7898   -0.0002 H       1  LIG1        0.0630
      8 H          -2.6604   -2.9848    0.0001 H       1  LIG1        0.0646
      9 H          -5.3052    1.1246   -0.0002 H       1  LIG1        0.0841
     10 N          -5.8529   -4.3106    0.0004 N.1     1  LIG1       -0.1893
     11 C          -5.3164   -3.2977    0.0002 C.1     1  LIG1        0.1191
     12 S          -2.4406    1.9027   -0.0005 S.3     1  LIG1       -0.1412
     13 H          -3.5416    2.6609   -0.0005 H       1  LIG1        0.1072
@<TRIPOS>BOND
     1    13    12    1
     2    12     4    1
     3     4     5   ar
     4     4     3   ar
     5     9     5    1
     6     7     3    1
     7     5     6   ar
     8     3     2   ar
     9     6     1   ar
    10     2     1   ar
    11     2     8    1
    12     1    11    1
    13    11    10    3
