@<TRIPOS>MOLECULE
mol_data/opt/m06hf/geoms/mol2/6dh12fi-12ea6fe-.out
 46 49 0 0 0
SMALL
GASTEIGER

@<TRIPOS>ATOM
      1 C          -3.8606   -1.5733   -1.4445 C.ar    1  LIG1        0.1410
      2 C          -2.7129   -1.8126   -0.6847 C.ar    1  LIG1       -0.0240
      3 C          -2.3891   -0.9105    0.3074 C.ar    1  LIG1       -0.0362
      4 C          -3.2054    0.2114    0.5379 C.ar    1  LIG1        0.0542
      5 C          -4.3481    0.3426   -0.2931 C.ar    1  LIG1        0.1316
      6 N          -4.6489   -0.5282   -1.2477 N.ar    1  LIG1       -0.2313
      7 H          -1.5104   -1.0622    0.9216 H       1  LIG1        0.0637
      8 H          -2.1031   -2.6830   -0.8810 H       1  LIG1        0.0646
      9 N          -4.4610   -3.2364   -3.3534 N.1     1  LIG1       -0.1893
     10 C          -4.2221   -2.4928   -2.5135 C.1     1  LIG1        0.1191
     11 N          -2.9298    1.0846    1.5465 N.pl3   1  LIG1       -0.3562
     12 H          -2.0603    0.9629    2.0400 H       1  LIG1        0.1424
     13 H          -3.2849    2.0312    1.4927 H       1  LIG1        0.1424
     14 C          -5.3251    1.4370   -0.1181 C.ar    1  LIG1        0.1972
     15 C          -5.2384    2.7620    0.1961 C.ar    1  LIG1        0.1679
     16 C          -6.5623    3.3124    0.1990 C.ar    1  LIG1        0.0406
     17 C          -7.3521    2.2580   -0.1469 C.ar    1  LIG1        0.1784
     18 O          -6.6213    1.1372   -0.3338 O.2     1  LIG1       -0.4460
     19 O          -4.0991    3.4625    0.5185 O.3     1  LIG1       -0.5030
     20 H          -3.7014    3.8321   -0.2796 H       1  LIG1        0.2923
     21 C          -6.9288    4.7266    0.5583 C.3     1  LIG1       -0.0325
     22 H          -7.9436    4.7637    0.9519 H       1  LIG1        0.0280
     23 H          -6.8792    5.3712   -0.3199 H       1  LIG1        0.0280
     24 H          -6.2299    5.0906    1.3109 H       1  LIG1        0.0280
     25 C          -8.7877    2.1226   -0.3239 C.ar    1  LIG1        0.1862
     26 C          -9.7592    2.9435   -0.8214 C.ar    1  LIG1        0.0740
     27 C         -10.9933    2.2039   -0.7303 C.ar    1  LIG1        0.0005
     28 C         -10.6770    0.9988   -0.1912 C.ar    1  LIG1        0.1422
     29 O          -9.3419    0.9527    0.0609 O.2     1  LIG1       -0.4503
     30 C          -9.5751    4.2423   -1.3940 C.1     1  LIG1       -0.0657
     31 C          -9.4414    5.3292   -1.8880 C.1     1  LIG1       -0.1138
     32 H          -9.3257    6.2900   -2.3339 H       1  LIG1        0.1232
     33 H         -11.9587    2.5385   -1.0680 H       1  LIG1        0.0668
     34 C         -10.9145   -1.4860    0.2382 C.ar    1  LIG1        0.2233
     35 C         -11.4735   -0.1874    0.1475 C.ar    1  LIG1        0.0797
     36 C         -12.8396   -0.0570    0.3612 C.ar    1  LIG1       -0.0291
     37 C         -13.6146   -1.1832    0.6292 C.ar    1  LIG1        0.0437
     38 C         -12.9565   -2.4162    0.6799 C.ar    1  LIG1        0.0468
     39 N         -11.6531   -2.5547    0.4952 N.ar    1  LIG1       -0.2196
     40 H         -13.3039    0.9200    0.3314 H       1  LIG1        0.0639
     41 H         -13.5189   -3.3190    0.8845 H       1  LIG1        0.0843
     42 O          -9.6141   -1.7376    0.0706 O.3     1  LIG1       -0.4919
     43 H          -9.0923   -0.9330   -0.0441 H       1  LIG1        0.2937
     44 C         -15.0331   -1.0873    0.8577 C.1     1  LIG1       -0.0681
     45 C         -16.2165   -1.0045    1.0484 C.1     1  LIG1       -0.1139
     46 H         -17.2654   -0.9317    1.2202 H       1  LIG1        0.1232
@<TRIPOS>BOND
     1     9    10    3
     2    10     1    1
     3    32    31    1
     4    31    30    3
     5     1     6   ar
     6     1     2   ar
     7    30    26    1
     8     6     5   ar
     9    33    27    1
    10     8     2    1
    11    26    27   ar
    12    26    25   ar
    13    27    28   ar
    14     2     3   ar
    15    18    17   ar
    16    18    14   ar
    17    25    17    1
    18    25    29   ar
    19    23    21    1
    20     5    14    1
    21     5     4   ar
    22    20    19    1
    23    28    29   ar
    24    28    35    1
    25    17    16   ar
    26    14    15   ar
    27    43    42    1
    28    42    34    1
    29    35    34   ar
    30    35    36   ar
    31    15    16   ar
    32    15    19    1
    33    16    21    1
    34    34    39   ar
    35     3     4   ar
    36     3     7    1
    37    40    36    1
    38    36    37   ar
    39    39    38   ar
    40     4    11    1
    41    21    22    1
    42    21    24    1
    43    37    38   ar
    44    37    44    1
    45    38    41    1
    46    44    45    3
    47    45    46    1
    48    13    11    1
    49    11    12    1
