@<TRIPOS>MOLECULE
mol_data/opt/m06hf/geoms/mol2/6dh13ia-13fl13ae.out
 48 51 0 0 0
SMALL
GASTEIGER

@<TRIPOS>ATOM
      1 C          -4.1806   -1.9858    0.5640 C.ar    1  LIG1        0.1409
      2 C          -3.0598   -2.1880   -0.2371 C.ar    1  LIG1       -0.0240
      3 C          -2.6409   -1.1453   -1.0469 C.ar    1  LIG1       -0.0362
      4 C          -3.3339    0.0697   -1.0274 C.ar    1  LIG1        0.0524
      5 C          -4.4148    0.1908   -0.1155 C.ar    1  LIG1        0.1093
      6 N          -4.8336   -0.8290    0.6232 N.ar    1  LIG1       -0.2330
      7 H          -1.7951   -1.2708   -1.7111 H       1  LIG1        0.0637
      8 H          -2.5517   -3.1416   -0.2328 H       1  LIG1        0.0646
      9 N          -5.0576   -3.9534    2.0237 N.1     1  LIG1       -0.1893
     10 C          -4.6840   -3.0736    1.3892 C.1     1  LIG1        0.1191
     11 N          -2.9945    1.1120   -1.8517 N.pl3   1  LIG1       -0.3563
     12 H          -2.4467    0.8937   -2.6697 H       1  LIG1        0.1424
     13 H          -3.7069    1.8197   -1.9785 H       1  LIG1        0.1424
     14 C          -5.2036    1.4338   -0.0100 C.ar    1  LIG1        0.0702
     15 C          -4.8690    2.7793    0.0345 C.ar    1  LIG1       -0.0230
     16 C          -6.0905    3.4910    0.1983 C.ar    1  LIG1       -0.0313
     17 C          -7.1119    2.5675    0.2691 C.ar    1  LIG1        0.0674
     18 N          -6.5595    1.3272    0.1416 N.ar    1  LIG1       -0.3515
     19 H          -7.0077    0.4425    0.3341 H       1  LIG1        0.1660
     20 C          -3.4887    3.3996    0.0435 C.3     1  LIG1       -0.0376
     21 H          -3.4659    4.1887    0.7954 H       1  LIG1        0.0278
     22 H          -3.2339    3.8455   -0.9212 H       1  LIG1        0.0278
     23 H          -2.7299    2.6584    0.2879 H       1  LIG1        0.0278
     24 H          -6.2161    4.5588    0.2721 H       1  LIG1        0.0642
     25 C          -8.5436    2.7673    0.4485 C.ar    1  LIG1        0.1091
     26 C          -9.2115    3.7668    1.1190 C.ar    1  LIG1        0.1865
     27 C         -10.5978    3.4949    1.0125 C.ar    1  LIG1        0.1888
     28 C         -10.7498    2.3383    0.2775 C.ar    1  LIG1        0.1094
     29 N          -9.4992    1.9121   -0.0540 N.ar    1  LIG1       -0.3460
     30 H          -9.3065    1.1214   -0.6470 H       1  LIG1        0.1662
     31 O          -8.6450    4.8334    1.7520 O.3     1  LIG1       -0.5019
     32 H          -9.2023    5.0711    2.5032 H       1  LIG1        0.2924
     33 O         -11.6071    4.2480    1.5608 O.3     1  LIG1       -0.4895
     34 C         -11.9467    5.3762    0.7448 C.3     1  LIG1        0.0791
     35 H         -12.7206    5.9227    1.2786 H       1  LIG1        0.0660
     36 H         -11.0665    6.0053    0.6022 H       1  LIG1        0.0660
     37 H         -12.3174    5.0333   -0.2223 H       1  LIG1        0.0660
     38 C         -11.9870    1.6651   -0.0918 C.ar    1  LIG1        0.0678
     39 C         -12.2845    0.6804   -1.0053 C.ar    1  LIG1       -0.0194
     40 C         -13.6887    0.4379   -0.9081 C.ar    1  LIG1        0.0426
     41 C         -14.1853    1.2900    0.0582 C.ar    1  LIG1        0.0177
     42 N         -13.1498    2.0211    0.5391 N.ar    1  LIG1       -0.3583
     43 H         -13.1764    2.7274    1.2635 H       1  LIG1        0.1654
     44 H         -15.1908    1.4093    0.4205 H       1  LIG1        0.0819
     45 H         -11.6062    0.1887   -1.6818 H       1  LIG1        0.0651
     46 C         -14.4561   -0.5033   -1.6714 C.1     1  LIG1       -0.0682
     47 C         -15.0949   -1.2919   -2.3161 C.1     1  LIG1       -0.1139
     48 H         -15.6610   -1.9901   -2.8874 H       1  LIG1        0.1232
@<TRIPOS>BOND
     1    48    47    1
     2    12    11    1
     3    47    46    3
     4    13    11    1
     5    11     4    1
     6     7     3    1
     7    45    39    1
     8    46    40    1
     9     3     4   ar
    10     3     2   ar
    11     4     5   ar
    12    39    40   ar
    13    39    38   ar
    14    22    20    1
    15    40    41   ar
    16    30    29    1
    17     2     8    1
    18     2     1   ar
    19    37    34    1
    20     5    14    1
    21     5     6   ar
    22    38    28    1
    23    38    42   ar
    24    29    28   ar
    25    29    25   ar
    26    14    15   ar
    27    14    18   ar
    28    15    20    1
    29    15    16   ar
    30    20    23    1
    31    20    21    1
    32    41    44    1
    33    41    42   ar
    34    18    17   ar
    35    18    19    1
    36    16    17   ar
    37    16    24    1
    38    17    25    1
    39    28    27   ar
    40    25    26   ar
    41    42    43    1
    42     1     6   ar
    43     1    10    1
    44    36    34    1
    45    34    35    1
    46    34    33    1
    47    27    26   ar
    48    27    33    1
    49    26    31    1
    50    10     9    3
    51    31    32    1
