@<TRIPOS>MOLECULE
mol_data/opt/m06hf/geoms/mol2/6dh4ii-6ll6ad.out
 57 60 0 0 0
SMALL
GASTEIGER

@<TRIPOS>ATOM
      1 C          -3.2856   -1.4737    1.3609 C.ar    1  LIG1        0.1408
      2 C          -2.8809   -2.1798    0.2317 C.ar    1  LIG1       -0.0240
      3 C          -3.2968   -1.7261   -1.0097 C.ar    1  LIG1       -0.0363
      4 C          -4.0964   -0.5822   -1.0869 C.ar    1  LIG1        0.0510
      5 C          -4.4283    0.0731    0.1268 C.ar    1  LIG1        0.0933
      6 N          -4.0412   -0.3782    1.3082 N.ar    1  LIG1       -0.2345
      7 H          -3.0126   -2.2512   -1.9130 H       1  LIG1        0.0637
      8 H          -2.2632   -3.0610    0.3350 H       1  LIG1        0.0646
      9 N          -2.5221   -2.3182    3.7011 N.1     1  LIG1       -0.1893
     10 C          -2.8718   -1.9303    2.6797 C.1     1  LIG1        0.1191
     11 N          -4.5289   -0.0739   -2.2890 N.pl3   1  LIG1       -0.3563
     12 H          -4.5223   -0.6935   -3.0844 H       1  LIG1        0.1424
     13 H          -5.3090    0.5685   -2.2489 H       1  LIG1        0.1424
     14 C          -4.7912    2.5077   -0.4128 C.ar    1  LIG1       -0.0406
     15 C          -5.6508    3.6053   -0.4237 C.ar    1  LIG1       -0.0501
     16 C          -5.2876    1.3005    0.0958 C.ar    1  LIG1        0.0054
     17 C          -6.9604    3.5201    0.0495 C.ar    1  LIG1       -0.0095
     18 H          -5.2980    4.5528   -0.8155 H       1  LIG1        0.0627
     19 C          -6.5902    1.2193    0.5878 C.ar    1  LIG1       -0.0488
     20 C          -7.4489    2.3163    0.5767 C.ar    1  LIG1       -0.0419
     21 H          -6.9296    0.2773    1.0028 H       1  LIG1        0.0627
     22 C          -3.3592    2.6296   -0.9018 C.3     1  LIG1       -0.0391
     23 H          -3.1379    3.6655   -1.1562 H       1  LIG1        0.0278
     24 H          -3.2036    2.0054   -1.7843 H       1  LIG1        0.0278
     25 H          -2.6699    2.3034   -0.1212 H       1  LIG1        0.0278
     26 C          -8.8548    2.2067    1.1335 C.3     1  LIG1       -0.0391
     27 H          -8.9767    1.2612    1.6602 H       1  LIG1        0.0278
     28 H          -9.5797    2.2632    0.3198 H       1  LIG1        0.0278
     29 H          -9.0528    3.0246    1.8285 H       1  LIG1        0.0278
     30 C          -8.9657    4.8553   -0.7589 C.ar    1  LIG1        0.2232
     31 C          -7.8036    4.7523    0.0285 C.ar    1  LIG1        0.0474
     32 C          -7.4523    5.8718    0.7647 C.ar    1  LIG1       -0.0050
     33 C          -8.2380    7.0302    0.7221 C.ar    1  LIG1        0.1468
     34 C          -9.3831    7.0198   -0.0790 C.ar    1  LIG1        0.1178
     35 N          -9.7068    5.9382   -0.7981 N.ar    1  LIG1       -0.2086
     36 H          -6.5626    5.8245    1.3786 H       1  LIG1        0.0662
     37 O          -9.3175    3.7927   -1.5064 O.3     1  LIG1       -0.4792
     38 C         -10.4789    3.9392   -2.3192 C.3     1  LIG1        0.0804
     39 H         -10.6012    2.9816   -2.8173 H       1  LIG1        0.0660
     40 H         -11.3470    4.1712   -1.7023 H       1  LIG1        0.0660
     41 H         -10.3299    4.7365   -3.0477 H       1  LIG1        0.0660
     42 O          -7.9440    8.1609    1.4134 O.3     1  LIG1       -0.4929
     43 C          -6.7194    8.2157    2.1276 C.3     1  LIG1        0.0789
     44 H          -6.6643    9.2194    2.5391 H       1  LIG1        0.0660
     45 H          -6.7116    7.4830    2.9375 H       1  LIG1        0.0660
     46 H          -5.8763    8.0447    1.4543 H       1  LIG1        0.0660
     47 C         -11.1252    8.2333   -1.3676 C.ar    1  LIG1        0.0369
     48 C         -10.3018    8.1862   -0.2325 C.ar    1  LIG1        0.0234
     49 C         -10.4185    9.2228    0.6901 C.ar    1  LIG1       -0.0321
     50 C         -11.3332   10.2405    0.4226 C.ar    1  LIG1        0.0704
     51 C         -12.0974   10.1985   -0.7432 C.ar    1  LIG1        0.0449
     52 N         -11.9926    9.2075   -1.6209 N.ar    1  LIG1       -0.2613
     53 H          -9.8237    9.2436    1.5900 H       1  LIG1        0.0638
     54 H         -12.8070   10.9867   -0.9624 H       1  LIG1        0.0842
     55 H         -11.0623    7.4320   -2.0925 H       1  LIG1        0.0836
     56 N         -11.6300   12.2188    2.0752 N.1     1  LIG1       -0.1908
     57 C         -11.4972   11.3425    1.3465 C.1     1  LIG1        0.1007
@<TRIPOS>BOND
     1    12    11    1
     2    41    38    1
     3    39    38    1
     4    38    40    1
     5    38    37    1
     6    11    13    1
     7    11     4    1
     8    55    47    1
     9     7     3    1
    10    24    22    1
    11    52    47   ar
    12    52    51   ar
    13    37    30    1
    14    47    48   ar
    15    23    22    1
    16     4     3   ar
    17     4     5   ar
    18     3     2   ar
    19    54    51    1
    20    22    14    1
    21    22    25    1
    22    18    15    1
    23    35    30   ar
    24    35    34   ar
    25    30    31   ar
    26    51    50   ar
    27    15    14   ar
    28    15    17   ar
    29    14    16   ar
    30    48    34    1
    31    48    49   ar
    32    34    33   ar
    33    31    17    1
    34    31    32   ar
    35    17    20   ar
    36    16     5    1
    37    16    19   ar
    38     5     6   ar
    39     2     8    1
    40     2     1   ar
    41    28    26    1
    42    50    49   ar
    43    50    57    1
    44    20    19   ar
    45    20    26    1
    46    19    21    1
    47    49    53    1
    48    33    32   ar
    49    33    42    1
    50    32    36    1
    51    26    27    1
    52    26    29    1
    53     6     1   ar
    54    57    56    3
    55     1    10    1
    56    42    43    1
    57    46    43    1
    58    43    44    1
    59    43    45    1
    60    10     9    3
