@<TRIPOS>MOLECULE
mol_data/opt/m06hf/geoms/mol2/6dh4ia13lh-13fe-.out
 52 55 0 0 0
SMALL
GASTEIGER

@<TRIPOS>ATOM
      1 C          -3.4848   -1.8428    1.0486 C.ar    1  LIG1        0.1408
      2 C          -2.8406   -2.2966   -0.0988 C.ar    1  LIG1       -0.0240
      3 C          -3.0048   -1.5761   -1.2706 C.ar    1  LIG1       -0.0363
      4 C          -3.7975   -0.4248   -1.2605 C.ar    1  LIG1        0.0510
      5 C          -4.3811   -0.0349   -0.0275 C.ar    1  LIG1        0.0932
      6 N          -4.2350   -0.7427    1.0810 N.ar    1  LIG1       -0.2345
      7 H          -2.5320   -1.9008   -2.1888 H       1  LIG1        0.0637
      8 H          -2.2390   -3.1939   -0.0657 H       1  LIG1        0.0646
      9 N          -3.2265   -3.2133    3.2457 N.1     1  LIG1       -0.1893
     10 C          -3.3522   -2.5918    2.2897 C.1     1  LIG1        0.1191
     11 N          -3.9928    0.3325   -2.3903 N.pl3   1  LIG1       -0.3563
     12 H          -3.8086   -0.1017   -3.2810 H       1  LIG1        0.1424
     13 H          -4.7723    0.9770   -2.3705 H       1  LIG1        0.1424
     14 C          -4.6965    2.4707   -0.1348 C.ar    1  LIG1       -0.0406
     15 C          -5.5504    3.5700   -0.1021 C.ar    1  LIG1       -0.0490
     16 C          -5.2440    1.1875    0.0332 C.ar    1  LIG1        0.0051
     17 C          -6.9257    3.4190    0.1148 C.ar    1  LIG1        0.0022
     18 H          -5.1543    4.5700   -0.2316 H       1  LIG1        0.0627
     19 C          -6.6088    1.0332    0.2734 C.ar    1  LIG1       -0.0516
     20 C          -7.4476    2.1390    0.3223 C.ar    1  LIG1       -0.0519
     21 H          -7.0018    0.0383    0.4407 H       1  LIG1        0.0624
     22 C          -3.2003    2.6641   -0.3128 C.3     1  LIG1       -0.0391
     23 H          -2.9565    3.7250   -0.2835 H       1  LIG1        0.0278
     24 H          -2.8692    2.2472   -1.2662 H       1  LIG1        0.0278
     25 H          -2.6641    2.1555    0.4902 H       1  LIG1        0.0278
     26 H          -8.4976    2.0076    0.5512 H       1  LIG1        0.0624
     27 C          -7.7946    4.6035    0.1389 C.ar    1  LIG1        0.0911
     28 C          -7.4886    5.9290    0.3637 C.ar    1  LIG1        0.1664
     29 C          -8.6862    6.6975    0.2927 C.ar    1  LIG1        0.0947
     30 C          -9.6977    5.8083    0.0092 C.ar    1  LIG1        0.0916
     31 N          -9.1497    4.5405   -0.0621 N.ar    1  LIG1       -0.3485
     32 H          -9.5974    3.7779   -0.5466 H       1  LIG1        0.1661
     33 O          -6.2632    6.4559    0.6654 O.3     1  LIG1       -0.4911
     34 C          -6.0559    6.5757    2.0761 C.3     1  LIG1        0.0790
     35 H          -5.0851    7.0486    2.2070 H       1  LIG1        0.0660
     36 H          -6.8432    7.1925    2.5137 H       1  LIG1        0.0660
     37 H          -6.0593    5.5851    2.5346 H       1  LIG1        0.0660
     38 N          -8.7669    8.0687    0.5553 N.pl3   1  LIG1       -0.3534
     39 H          -7.8794    8.5179    0.3584 H       1  LIG1        0.1425
     40 H          -9.5186    8.5126    0.0357 H       1  LIG1        0.1425
     41 C         -11.1194    6.0547   -0.1673 C.ar    1  LIG1        0.1081
     42 C         -11.7735    7.1172   -0.7367 C.ar    1  LIG1        0.1589
     43 C         -13.1781    6.8879   -0.6309 C.ar    1  LIG1        0.0840
     44 C         -13.3333    5.6724    0.0057 C.ar    1  LIG1        0.0213
     45 N         -12.0986    5.1881    0.2781 N.ar    1  LIG1       -0.3554
     46 H         -11.9020    4.3688    0.8303 H       1  LIG1        0.1655
     47 H         -14.2318    5.1471    0.2758 H       1  LIG1        0.0820
     48 O         -11.1719    8.2018   -1.2991 O.3     1  LIG1       -0.5035
     49 H         -11.8563    8.7881   -1.6466 H       1  LIG1        0.2923
     50 C         -14.1716    7.7809   -1.1419 C.1     1  LIG1       -0.0645
     51 C         -14.9507    8.5763   -1.5986 C.1     1  LIG1       -0.1137
     52 H         -15.6571    9.2655   -1.9999 H       1  LIG1        0.1232
@<TRIPOS>BOND
     1    12    11    1
     2    11    13    1
     3    11     4    1
     4     7     3    1
     5    52    51    1
     6    49    48    1
     7    51    50    3
     8    48    42    1
     9     3     4   ar
    10     3     2   ar
    11    24    22    1
    12     4     5   ar
    13    50    43    1
    14    42    43   ar
    15    42    41   ar
    16    43    44   ar
    17    32    31    1
    18    22    23    1
    19    22    14    1
    20    22    25    1
    21    18    15    1
    22    41    30    1
    23    41    45   ar
    24    14    15   ar
    25    14    16   ar
    26    15    17   ar
    27     2     8    1
    28     2     1   ar
    29    31    30   ar
    30    31    27   ar
    31     5    16    1
    32     5     6   ar
    33    44    47    1
    34    44    45   ar
    35    30    29   ar
    36    16    19   ar
    37    40    38    1
    38    17    27    1
    39    17    20   ar
    40    27    28   ar
    41    19    20   ar
    42    19    21    1
    43    45    46    1
    44    29    28   ar
    45    29    38    1
    46    20    26    1
    47    39    38    1
    48    28    33    1
    49    33    34    1
    50     1     6   ar
    51     1    10    1
    52    34    35    1
    53    34    36    1
    54    34    37    1
    55    10     9    3
