@<TRIPOS>MOLECULE
mol_data/opt/m06hf/geoms/mol2/6dh6dh6dh6dh-.out
 50 53 0 0 0
SMALL
GASTEIGER

@<TRIPOS>ATOM
      1 C          -2.4618   -0.8202    0.9255 C.ar    1  LIG1        0.1408
      2 C          -2.6835   -2.0023    0.2165 C.ar    1  LIG1       -0.0240
      3 C          -3.7890   -2.0757   -0.6068 C.ar    1  LIG1       -0.0363
      4 C          -4.6637   -0.9805   -0.7038 C.ar    1  LIG1        0.0511
      5 C          -4.3732    0.1380    0.1168 C.ar    1  LIG1        0.0958
      6 N          -3.2887    0.2157    0.8732 N.ar    1  LIG1       -0.2344
      7 H          -3.9792   -2.9632   -1.1963 H       1  LIG1        0.0637
      8 H          -1.9922   -2.8282    0.3084 H       1  LIG1        0.0646
      9 N          -0.3443   -0.6130    2.4222 N.1     1  LIG1       -0.1893
     10 C          -1.2848   -0.6878    1.7702 C.1     1  LIG1        0.1191
     11 N          -5.6952   -0.9848   -1.5956 N.pl3   1  LIG1       -0.3563
     12 H          -6.0349   -1.8742   -1.9254 H       1  LIG1        0.1424
     13 H          -6.3832   -0.2478   -1.5668 H       1  LIG1        0.1424
     14 C          -6.6217    1.2762    0.4481 C.ar    1  LIG1        0.1500
     15 C          -5.2563    1.3432    0.1395 C.ar    1  LIG1        0.0398
     16 C          -4.7143    2.5939   -0.1158 C.ar    1  LIG1       -0.0270
     17 C          -5.5313    3.7284   -0.1021 C.ar    1  LIG1        0.0517
     18 C          -6.9031    3.5269    0.1812 C.ar    1  LIG1        0.0958
     19 N          -7.4154    2.3406    0.4534 N.ar    1  LIG1       -0.2337
     20 H          -3.6556    2.6759   -0.3288 H       1  LIG1        0.0644
     21 N          -7.6791   -1.0172    1.0781 N.1     1  LIG1       -0.1893
     22 C          -7.2326    0.0054    0.8120 C.1     1  LIG1        0.1198
     23 N          -5.0314    4.9833   -0.3391 N.pl3   1  LIG1       -0.3563
     24 H          -4.1116    5.0456   -0.7475 H       1  LIG1        0.1424
     25 H          -5.6825    5.6971   -0.6322 H       1  LIG1        0.1424
     26 C          -8.9378    4.6564   -0.7545 C.ar    1  LIG1        0.1500
     27 C          -7.8651    4.6690    0.1463 C.ar    1  LIG1        0.0398
     28 C          -7.7325    5.7686    0.9781 C.ar    1  LIG1       -0.0270
     29 C          -8.6715    6.8106    0.9259 C.ar    1  LIG1        0.0517
     30 C          -9.7506    6.6523    0.0230 C.ar    1  LIG1        0.0958
     31 N          -9.8439    5.6213   -0.8054 N.ar    1  LIG1       -0.2337
     32 H          -6.8996    5.8256    1.6696 H       1  LIG1        0.0644
     33 N          -9.1335    2.7207   -2.4828 N.1     1  LIG1       -0.1893
     34 C          -9.0703    3.5686   -1.7133 C.1     1  LIG1        0.1198
     35 N          -8.4931    7.9452    1.6686 N.pl3   1  LIG1       -0.3563
     36 H          -7.9413    7.8618    2.5092 H       1  LIG1        0.1424
     37 H          -9.2671    8.5872    1.7478 H       1  LIG1        0.1424
     38 C         -11.6327    8.0803    0.9696 C.ar    1  LIG1        0.1493
     39 C         -10.8406    7.6682   -0.1073 C.ar    1  LIG1        0.0398
     40 C         -11.1378    8.1823   -1.3641 C.ar    1  LIG1       -0.0276
     41 C         -12.1823    9.0968   -1.5090 C.ar    1  LIG1        0.0436
     42 C         -12.8880    9.4610   -0.3405 C.ar    1  LIG1        0.0497
     43 N         -12.6251    8.9627    0.8493 N.ar    1  LIG1       -0.2421
     44 H         -10.5606    7.8534   -2.2194 H       1  LIG1        0.0644
     45 H         -13.7003   10.1772   -0.4009 H       1  LIG1        0.0849
     46 N         -11.2092    7.0919    3.3399 N.1     1  LIG1       -0.1893
     47 C         -11.4208    7.5251    2.2987 C.1     1  LIG1        0.1198
     48 N         -12.4957    9.6621   -2.7177 N.pl3   1  LIG1       -0.3568
     49 H         -13.3936   10.1106   -2.8098 H       1  LIG1        0.1424
     50 H         -12.1608    9.2070   -3.5525 H       1  LIG1        0.1424
@<TRIPOS>BOND
     1    50    48    1
     2    49    48    1
     3    48    41    1
     4    33    34    3
     5    44    40    1
     6    12    11    1
     7    34    26    1
     8    11    13    1
     9    11     4    1
    10    41    40   ar
    11    41    42   ar
    12    40    39   ar
    13     7     3    1
    14    31    26   ar
    15    31    30   ar
    16    26    27   ar
    17    24    23    1
    18     4     3   ar
    19     4     5   ar
    20    25    23    1
    21     3     2   ar
    22    45    42    1
    23    42    43   ar
    24    23    17    1
    25    20    16    1
    26    16    17   ar
    27    16    15   ar
    28    39    30    1
    29    39    38   ar
    30    17    18   ar
    31    30    29   ar
    32     5    15    1
    33     5     6   ar
    34    15    14   ar
    35    27    18    1
    36    27    28   ar
    37    18    19   ar
    38     2     8    1
    39     2     1   ar
    40    14    19   ar
    41    14    22    1
    42    22    21    3
    43    43    38   ar
    44     6     1   ar
    45     1    10    1
    46    29    28   ar
    47    29    35    1
    48    38    47    1
    49    28    32    1
    50    35    37    1
    51    35    36    1
    52    10     9    3
    53    47    46    3
