@<TRIPOS>MOLECULE
mol_data/opt/m06hf/geoms/mol2/6dh6dh-.out
 26 27 0 0 0
SMALL
GASTEIGER

@<TRIPOS>ATOM
      1 C          -4.4436   -1.9870    0.5380 C.ar    1  LIG1        0.1408
      2 C          -3.1262   -2.0963    0.0906 C.ar    1  LIG1       -0.0240
      3 C          -2.5315   -0.9813   -0.4658 C.ar    1  LIG1       -0.0363
      4 C          -3.2476    0.2228   -0.5563 C.ar    1  LIG1        0.0511
      5 C          -4.5524    0.2323   -0.0067 C.ar    1  LIG1        0.0958
      6 N          -5.1294   -0.8527    0.4897 N.ar    1  LIG1       -0.2344
      7 H          -1.5224   -1.0307   -0.8536 H       1  LIG1        0.0637
      8 H          -2.6007   -3.0376    0.1695 H       1  LIG1        0.0646
      9 N          -5.6307   -4.0892    1.5080 N.1     1  LIG1       -0.1893
     10 C          -5.1229   -3.1505    1.0882 C.1     1  LIG1        0.1191
     11 N          -2.7192    1.3024   -1.2094 N.pl3   1  LIG1       -0.3563
     12 H          -1.7140    1.3615   -1.2671 H       1  LIG1        0.1424
     13 H          -3.1826    2.1927   -1.1135 H       1  LIG1        0.1424
     14 C          -4.9976    2.6620    0.6067 C.ar    1  LIG1        0.1493
     15 C          -5.4026    1.4628    0.0103 C.ar    1  LIG1        0.0398
     16 C          -6.6858    1.4063   -0.5203 C.ar    1  LIG1       -0.0276
     17 C          -7.5085    2.5326   -0.4664 C.ar    1  LIG1        0.0436
     18 C          -6.9739    3.6950    0.1314 C.ar    1  LIG1        0.0497
     19 N          -5.7670    3.7503    0.6545 N.ar    1  LIG1       -0.2421
     20 H          -7.0350    0.4788   -0.9569 H       1  LIG1        0.0644
     21 H          -7.5716    4.5982    0.1857 H       1  LIG1        0.0849
     22 N          -2.6511    2.8359    1.7208 N.1     1  LIG1       -0.1893
     23 C          -3.6942    2.7686    1.2470 C.1     1  LIG1        0.1198
     24 N          -8.7694    2.5407   -1.0047 N.pl3   1  LIG1       -0.3568
     25 H          -9.3985    3.2759   -0.7231 H       1  LIG1        0.1424
     26 H          -9.2086    1.6523   -1.1890 H       1  LIG1        0.1424
@<TRIPOS>BOND
     1    12    11    1
     2    11    13    1
     3    11     4    1
     4    26    24    1
     5    24    25    1
     6    24    17    1
     7    20    16    1
     8     7     3    1
     9     4     3   ar
    10     4     5   ar
    11    16    17   ar
    12    16    15   ar
    13    17    18   ar
    14     3     2   ar
    15     5    15    1
    16     5     6   ar
    17    15    14   ar
    18     2     8    1
    19     2     1   ar
    20    18    21    1
    21    18    19   ar
    22     6     1   ar
    23     1    10    1
    24    14    19   ar
    25    14    23    1
    26    10     9    3
    27    23    22    3
