@<TRIPOS>MOLECULE
mol_data/opt/m06hf/geoms/mol2/6dh6dh-6dh6dh-.out
 50 53 0 0 0
SMALL
GASTEIGER

@<TRIPOS>ATOM
      1 C          -4.3703   -2.1178   -0.8721 C.ar    1  LIG1        0.1408
      2 C          -3.0357   -2.2556   -0.4858 C.ar    1  LIG1       -0.0240
      3 C          -2.4127   -1.1737    0.1035 C.ar    1  LIG1       -0.0363
      4 C          -3.1180    0.0260    0.2868 C.ar    1  LIG1        0.0511
      5 C          -4.4438    0.0684   -0.2053 C.ar    1  LIG1        0.0958
      6 N          -5.0479   -0.9867   -0.7339 N.ar    1  LIG1       -0.2344
      7 H          -1.3891   -1.2470    0.4481 H       1  LIG1        0.0637
      8 H          -2.5201   -3.1934   -0.6376 H       1  LIG1        0.0646
      9 N          -5.6021   -4.1629   -1.9055 N.1     1  LIG1       -0.1893
     10 C          -5.0762   -3.2484   -1.4563 C.1     1  LIG1        0.1191
     11 N          -2.5532    1.0670    0.9764 N.pl3   1  LIG1       -0.3563
     12 H          -1.5464    1.1299    0.9643 H       1  LIG1        0.1424
     13 H          -3.0187    1.9611    0.9502 H       1  LIG1        0.1424
     14 C          -4.9018    2.5359   -0.6587 C.ar    1  LIG1        0.1500
     15 C          -5.2881    1.3005   -0.1184 C.ar    1  LIG1        0.0398
     16 C          -6.5375    1.2278    0.4740 C.ar    1  LIG1       -0.0270
     17 C          -7.3624    2.3581    0.5416 C.ar    1  LIG1        0.0517
     18 C          -6.8676    3.5466   -0.0540 C.ar    1  LIG1        0.0958
     19 N          -5.6705    3.6174   -0.6119 N.ar    1  LIG1       -0.2337
     20 H          -6.8684    0.2846    0.8908 H       1  LIG1        0.0644
     21 N          -2.5965    2.7718   -1.8439 N.1     1  LIG1       -0.1893
     22 C          -3.6234    2.6819   -1.3400 C.1     1  LIG1        0.1198
     23 N          -8.5477    2.3143    1.2185 N.pl3   1  LIG1       -0.3563
     24 H          -9.2056    3.0670    1.0904 H       1  LIG1        0.1424
     25 H          -8.9707    1.4080    1.3489 H       1  LIG1        0.1424
     26 C          -8.9266    4.9501   -0.6011 C.ar    1  LIG1        0.1500
     27 C          -7.6445    4.8256   -0.0487 C.ar    1  LIG1        0.0398
     28 C          -7.0693    5.9649    0.4889 C.ar    1  LIG1       -0.0270
     29 C          -7.7620    7.1830    0.4903 C.ar    1  LIG1        0.0517
     30 C          -9.0416    7.1899   -0.1237 C.ar    1  LIG1        0.0958
     31 N          -9.5942    6.0980   -0.6245 N.ar    1  LIG1       -0.2337
     32 H          -6.0776    5.9029    0.9194 H       1  LIG1        0.0644
     33 N         -10.1093    2.8874   -1.6583 N.1     1  LIG1       -0.1893
     34 C          -9.5907    3.8093   -1.2143 C.1     1  LIG1        0.1198
     35 N          -7.2464    8.2771    1.1207 N.pl3   1  LIG1       -0.3563
     36 H          -6.2491    8.3041    1.2669 H       1  LIG1        0.1424
     37 H          -7.6723    9.1762    0.9578 H       1  LIG1        0.1424
     38 C          -9.4462    9.6061   -0.8174 C.ar    1  LIG1        0.1493
     39 C          -9.8818    8.4246   -0.2079 C.ar    1  LIG1        0.0398
     40 C         -11.1827    8.3896    0.2804 C.ar    1  LIG1       -0.0276
     41 C         -11.9946    9.5200    0.1715 C.ar    1  LIG1        0.0436
     42 C         -11.4296   10.6640   -0.4344 C.ar    1  LIG1        0.0497
     43 N         -10.2049   10.6983   -0.9161 N.ar    1  LIG1       -0.2421
     44 H         -11.5549    7.4765    0.7282 H       1  LIG1        0.0644
     45 H         -12.0169   11.5705   -0.5298 H       1  LIG1        0.0849
     46 N          -7.0601    9.7369   -1.8485 N.1     1  LIG1       -0.1893
     47 C          -8.1207    9.6889   -1.4139 C.1     1  LIG1        0.1198
     48 N         -13.2724    9.5516    0.6645 N.pl3   1  LIG1       -0.3568
     49 H         -13.8838   10.2891    0.3517 H       1  LIG1        0.1424
     50 H         -13.7273    8.6745    0.8624 H       1  LIG1        0.1424
@<TRIPOS>BOND
     1     9    10    3
     2    46    47    3
     3    21    22    3
     4    33    34    3
     5    10     1    1
     6    47    38    1
     7    22    14    1
     8    34    26    1
     9    43    38   ar
    10    43    42   ar
    11     1     6   ar
    12     1     2   ar
    13    38    39   ar
    14     6     5   ar
    15    14    19   ar
    16    14    15   ar
    17     8     2    1
    18    31    26   ar
    19    31    30   ar
    20    19    18   ar
    21    26    27   ar
    22    45    42    1
    23     2     3   ar
    24    42    41   ar
    25    39    30    1
    26    39    40   ar
    27     5    15    1
    28     5     4   ar
    29    30    29   ar
    30    15    16   ar
    31    18    27    1
    32    18    17   ar
    33    27    28   ar
    34     3     4   ar
    35     3     7    1
    36    41    40   ar
    37    41    48    1
    38    40    44    1
    39     4    11    1
    40    49    48    1
    41    16    17   ar
    42    16    20    1
    43    28    29   ar
    44    28    32    1
    45    29    35    1
    46    17    23    1
    47    48    50    1
    48    13    11    1
    49    37    35    1
    50    12    11    1
    51    24    23    1
    52    35    36    1
    53    23    25    1
