@<TRIPOS>MOLECULE
mol_data/opt/m06hf/geoms/mol2/6dh6al-12ef12dh.out
 47 50 0 0 0
SMALL
GASTEIGER

@<TRIPOS>ATOM
      1 C          -4.2624   -2.2039    0.0635 C.ar    1  LIG1        0.1408
      2 C          -2.9023   -2.2081   -0.2365 C.ar    1  LIG1       -0.0240
      3 C          -2.2994   -0.9981   -0.5351 C.ar    1  LIG1       -0.0363
      4 C          -3.0568    0.1771   -0.5185 C.ar    1  LIG1        0.0510
      5 C          -4.4223    0.0694   -0.1562 C.ar    1  LIG1        0.0946
      6 N          -4.9953   -1.0969    0.1027 N.ar    1  LIG1       -0.2345
      7 H          -1.2488   -0.9570   -0.7945 H       1  LIG1        0.0637
      8 H          -2.3488   -3.1362   -0.2445 H       1  LIG1        0.0646
      9 N          -5.4381   -4.4663    0.5839 N.1     1  LIG1       -0.1893
     10 C          -4.9395   -3.4587    0.3585 C.1     1  LIG1        0.1191
     11 N          -2.4869    1.3988   -0.8243 N.pl3   1  LIG1       -0.3563
     12 H          -1.6082    1.3575   -1.3202 H       1  LIG1        0.1424
     13 H          -3.1199    2.1027   -1.1814 H       1  LIG1        0.1424
     14 C          -6.6031    1.1937   -0.5997 C.ar    1  LIG1        0.0379
     15 C          -5.3080    1.2679   -0.0840 C.ar    1  LIG1        0.0238
     16 C          -4.8962    2.4545    0.5260 C.ar    1  LIG1       -0.0070
     17 C          -5.7861    3.5237    0.5737 C.ar    1  LIG1        0.1496
     18 C          -7.0413    3.3690   -0.0402 C.ar    1  LIG1        0.1487
     19 N          -7.4378    2.2255   -0.5858 N.ar    1  LIG1       -0.2475
     20 H          -3.9147    2.5194    0.9786 H       1  LIG1        0.0662
     21 H          -6.9575    0.2707   -1.0395 H       1  LIG1        0.0836
     22 O          -5.5467    4.6920    1.1923 O.3     1  LIG1       -0.4928
     23 C          -4.2204    4.9928    1.5854 C.3     1  LIG1        0.0789
     24 H          -4.2446    6.0249    1.9220 H       1  LIG1        0.0660
     25 H          -3.9010    4.3400    2.4009 H       1  LIG1        0.0660
     26 H          -3.5410    4.8943    0.7342 H       1  LIG1        0.0660
     27 C          -7.9905    4.4979   -0.0933 C.ar    1  LIG1        0.1765
     28 C          -7.8329    5.8387   -0.3267 C.ar    1  LIG1        0.1142
     29 C          -9.1601    6.3956   -0.3097 C.ar    1  LIG1        0.1822
     30 C         -10.0050    5.3445   -0.0712 C.ar    1  LIG1        0.2143
     31 O          -9.2856    4.2011    0.0497 O.2     1  LIG1       -0.4449
     32 C          -6.6411    6.5750   -0.6118 C.1     1  LIG1       -0.0621
     33 C          -5.6654    7.2236   -0.8770 C.1     1  LIG1       -0.1137
     34 H          -4.8121    7.8122   -1.1230 H       1  LIG1        0.1232
     35 O          -9.3796    7.7108   -0.4546 O.3     1  LIG1       -0.5023
     36 H         -10.2459    7.9174   -0.8296 H       1  LIG1        0.2923
     37 C         -11.4371    5.2318    0.1126 C.ar    1  LIG1        0.1925
     38 C         -12.4853    6.0279   -0.2704 C.ar    1  LIG1        0.1212
     39 C         -13.6883    5.4040    0.2300 C.ar    1  LIG1        0.0812
     40 C         -13.2621    4.2805    0.8572 C.ar    1  LIG1        0.1146
     41 O         -11.9030    4.1882    0.7920 O.2     1  LIG1       -0.4565
     42 H         -13.7741    3.4921    1.3770 H       1  LIG1        0.1049
     43 N         -12.2560    8.1682   -1.6848 N.1     1  LIG1       -0.1907
     44 C         -12.3807    7.2142   -1.0532 C.1     1  LIG1        0.1049
     45 N         -14.9672    5.9430    0.1086 N.pl3   1  LIG1       -0.3545
     46 H         -15.1351    6.3882   -0.7848 H       1  LIG1        0.1424
     47 H         -15.7085    5.2961    0.3417 H       1  LIG1        0.1424
@<TRIPOS>BOND
     1    43    44    3
     2    12    11    1
     3    13    11    1
     4    34    33    1
     5    44    38    1
     6    21    14    1
     7    33    32    3
     8    36    35    1
     9    11     4    1
    10     7     3    1
    11    46    45    1
    12    32    28    1
    13    14    19   ar
    14    14    15   ar
    15    19    18   ar
    16     3     4   ar
    17     3     2   ar
    18     4     5   ar
    19    35    29    1
    20    28    29   ar
    21    28    27   ar
    22    29    30   ar
    23    38    37   ar
    24    38    39   ar
    25     8     2    1
    26     2     1   ar
    27     5    15    1
    28     5     6   ar
    29    27    18    1
    30    27    31   ar
    31    15    16   ar
    32    30    31   ar
    33    30    37    1
    34    18    17   ar
    35     1     6   ar
    36     1    10    1
    37    45    39    1
    38    45    47    1
    39    37    41   ar
    40    39    40   ar
    41    10     9    3
    42    16    17   ar
    43    16    20    1
    44    17    22    1
    45    26    23    1
    46    41    40   ar
    47    40    42    1
    48    22    23    1
    49    23    24    1
    50    23    25    1
