@<TRIPOS>MOLECULE
mol_data/opt/m06hf/geoms/mol2/6dh6dh6dh-6dh.out
 50 53 0 0 0
SMALL
GASTEIGER

@<TRIPOS>ATOM
      1 C          -3.0160   -1.1457    1.4350 C.ar    1  LIG1        0.1408
      2 C          -2.8698   -2.1354    0.4611 C.ar    1  LIG1       -0.0240
      3 C          -3.5144   -1.9614   -0.7471 C.ar    1  LIG1       -0.0363
      4 C          -4.3008   -0.8189   -0.9630 C.ar    1  LIG1        0.0511
      5 C          -4.4287    0.0818    0.1206 C.ar    1  LIG1        0.0958
      6 N          -3.7749   -0.0721    1.2637 N.ar    1  LIG1       -0.2344
      7 H          -3.4019   -2.6876   -1.5420 H       1  LIG1        0.0637
      8 H          -2.2549   -3.0028    0.6561 H       1  LIG1        0.0646
      9 N          -1.7456   -1.3981    3.6910 N.1     1  LIG1       -0.1893
     10 C          -2.3175   -1.2701    2.7055 C.1     1  LIG1        0.1191
     11 N          -4.8485   -0.5735   -2.1949 N.pl3   1  LIG1       -0.3563
     12 H          -5.0431   -1.3749   -2.7761 H       1  LIG1        0.1424
     13 H          -5.5335    0.1626   -2.2714 H       1  LIG1        0.1424
     14 C          -6.6422    1.2843   -0.2772 C.ar    1  LIG1        0.1500
     15 C          -5.2761    1.3121    0.0396 C.ar    1  LIG1        0.0398
     16 C          -4.7173    2.5431    0.3390 C.ar    1  LIG1       -0.0270
     17 C          -5.4946    3.7080    0.3017 C.ar    1  LIG1        0.0517
     18 C          -6.8677    3.5500   -0.0171 C.ar    1  LIG1        0.0958
     19 N          -7.3987    2.3749   -0.3114 N.ar    1  LIG1       -0.2337
     20 H          -3.6670    2.5955    0.5980 H       1  LIG1        0.0644
     21 N          -7.8079   -0.9826   -0.8033 N.1     1  LIG1       -0.1893
     22 C          -7.3145    0.0236   -0.5575 C.1     1  LIG1        0.1198
     23 N          -4.9213    4.9328    0.4922 N.pl3   1  LIG1       -0.3563
     24 H          -4.0479    4.9594    0.9961 H       1  LIG1        0.1424
     25 H          -5.5204    5.7270    0.6542 H       1  LIG1        0.1424
     26 C          -8.0426    5.5854    0.9750 C.ar    1  LIG1        0.1500
     27 C          -7.8080    4.7114   -0.0953 C.ar    1  LIG1        0.0398
     28 C          -8.5219    4.9274   -1.2621 C.ar    1  LIG1       -0.0270
     29 C          -9.4258    5.9936   -1.3602 C.ar    1  LIG1        0.0517
     30 C          -9.5985    6.7924   -0.1997 C.ar    1  LIG1        0.0958
     31 N          -8.9061    6.5924    0.9089 N.ar    1  LIG1       -0.2337
     32 H          -8.3667    4.2668   -2.1060 H       1  LIG1        0.0644
     33 N          -6.7775    5.2757    3.2278 N.1     1  LIG1       -0.1893
     34 C          -7.3574    5.4106    2.2472 C.1     1  LIG1        0.1198
     35 N         -10.0432    6.2773   -2.5428 N.pl3   1  LIG1       -0.3563
     36 H         -10.8123    6.9291   -2.5442 H       1  LIG1        0.1424
     37 H         -10.1207    5.5331   -3.2187 H       1  LIG1        0.1424
     38 C         -11.9105    7.8329   -0.4327 C.ar    1  LIG1        0.1493
     39 C         -10.5435    7.9512   -0.1598 C.ar    1  LIG1        0.0398
     40 C         -10.0664    9.1975    0.2290 C.ar    1  LIG1       -0.0276
     41 C         -10.9437   10.2803    0.3123 C.ar    1  LIG1        0.0436
     42 C         -12.2955   10.0424   -0.0207 C.ar    1  LIG1        0.0497
     43 N         -12.7580    8.8606   -0.3711 N.ar    1  LIG1       -0.2421
     44 H          -9.0181    9.3086    0.4766 H       1  LIG1        0.0644
     45 H         -13.0122   10.8553    0.0164 H       1  LIG1        0.0849
     46 N         -12.9154    5.5192   -1.0738 N.1     1  LIG1       -0.1893
     47 C         -12.4902    6.5422   -0.7757 C.1     1  LIG1        0.1198
     48 N         -10.5217   11.5370    0.6580 N.pl3   1  LIG1       -0.3568
     49 H          -9.6304   11.6290    1.1189 H       1  LIG1        0.1424
     50 H         -11.2172   12.2122    0.9336 H       1  LIG1        0.1424
@<TRIPOS>BOND
     1    37    35    1
     2    12    11    1
     3    36    35    1
     4    35    29    1
     5    13    11    1
     6    11     4    1
     7    32    28    1
     8     7     3    1
     9    29    28   ar
    10    29    30   ar
    11    28    27   ar
    12    46    47    3
    13     4     3   ar
    14     4     5   ar
    15    21    22    3
    16    47    38    1
    17     3     2   ar
    18    22    14    1
    19    38    43   ar
    20    38    39   ar
    21    43    42   ar
    22    19    14   ar
    23    19    18   ar
    24    14    15   ar
    25    30    39    1
    26    30    31   ar
    27    39    40   ar
    28    27    18    1
    29    27    26   ar
    30    42    45    1
    31    42    41   ar
    32    18    17   ar
    33    15     5    1
    34    15    16   ar
    35     5     6   ar
    36    40    41   ar
    37    40    44    1
    38    17    16   ar
    39    17    23    1
    40    41    48    1
    41    16    20    1
    42     2     8    1
    43     2     1   ar
    44    23    25    1
    45    23    24    1
    46    48    50    1
    47    48    49    1
    48    31    26   ar
    49    26    34    1
    50     6     1   ar
    51     1    10    1
    52    34    33    3
    53    10     9    3
