@<TRIPOS>MOLECULE
mol_data/opt/m06hf/geoms/mol2/6dh6af12di6dd-.out
 46 49 0 0 0
SMALL
GASTEIGER

@<TRIPOS>ATOM
      1 C          -4.3590   -2.1772   -0.4019 C.ar    1  LIG1        0.1408
      2 C          -2.9655   -2.1954   -0.4395 C.ar    1  LIG1       -0.0240
      3 C          -2.2984   -0.9846   -0.4001 C.ar    1  LIG1       -0.0363
      4 C          -3.0245    0.2097   -0.3127 C.ar    1  LIG1        0.0510
      5 C          -4.4352    0.1059   -0.2299 C.ar    1  LIG1        0.0946
      6 N          -5.0652   -1.0585   -0.2992 N.ar    1  LIG1       -0.2345
      7 H          -1.2171   -0.9514   -0.4469 H       1  LIG1        0.0637
      8 H          -2.4344   -3.1338   -0.5100 H       1  LIG1        0.0646
      9 N          -5.6484   -4.4328   -0.5373 N.1     1  LIG1       -0.1893
     10 C          -5.1002   -3.4277   -0.4746 C.1     1  LIG1        0.1191
     11 N          -2.3834    1.4281   -0.2854 N.pl3   1  LIG1       -0.3563
     12 H          -1.4204    1.4320   -0.5873 H       1  LIG1        0.1424
     13 H          -2.9152    2.2310   -0.5919 H       1  LIG1        0.1424
     14 C          -6.5375    1.3301   -0.7867 C.ar    1  LIG1        0.0378
     15 C          -5.3125    1.3054   -0.0952 C.ar    1  LIG1        0.0238
     16 C          -4.9973    2.3765    0.7273 C.ar    1  LIG1       -0.0072
     17 C          -5.8847    3.4519    0.8110 C.ar    1  LIG1        0.1464
     18 C          -7.0481    3.4001    0.0404 C.ar    1  LIG1        0.1485
     19 N          -7.3702    2.3503   -0.7200 N.ar    1  LIG1       -0.2475
     20 H          -4.1005    2.3963    1.3344 H       1  LIG1        0.0662
     21 H          -6.8246    0.4862   -1.3997 H       1  LIG1        0.0836
     22 O          -5.5610    4.4646    1.6402 O.3     1  LIG1       -0.5045
     23 H          -6.2903    5.0873    1.7498 H       1  LIG1        0.2922
     24 C          -8.0131    4.5190    0.0412 C.ar    1  LIG1        0.1749
     25 C          -7.8689    5.8773   -0.0798 C.ar    1  LIG1        0.1025
     26 C          -9.1910    6.4545   -0.0582 C.ar    1  LIG1        0.0135
     27 C         -10.0170    5.3831    0.0703 C.ar    1  LIG1        0.1427
     28 O          -9.3115    4.2286    0.1299 O.2     1  LIG1       -0.4515
     29 N          -5.6649    7.1890   -0.3776 N.1     1  LIG1       -0.1907
     30 C          -6.6393    6.5955   -0.2531 C.1     1  LIG1        0.1033
     31 C          -9.5229    7.9204   -0.1428 C.3     1  LIG1       -0.0349
     32 H         -10.5517    8.0951    0.1691 H       1  LIG1        0.0279
     33 H          -9.3887    8.2802   -1.1638 H       1  LIG1        0.0279
     34 H          -8.8552    8.4834    0.5094 H       1  LIG1        0.0279
     35 C         -12.0908    4.5484    1.2069 C.ar    1  LIG1        0.1507
     36 C         -11.4819    5.2775    0.1750 C.ar    1  LIG1        0.0546
     37 C         -12.3191    5.9056   -0.7418 C.ar    1  LIG1       -0.0295
     38 C         -13.6957    5.7716   -0.5838 C.ar    1  LIG1        0.0706
     39 C         -14.1957    5.0009    0.4703 C.ar    1  LIG1        0.0464
     40 N         -13.4029    4.4038    1.3489 N.ar    1  LIG1       -0.2426
     41 H         -11.9077    6.4702   -1.5681 H       1  LIG1        0.0639
     42 H         -15.2624    4.8742    0.6007 H       1  LIG1        0.0843
     43 N         -10.5844    3.4885    3.0480 N.1     1  LIG1       -0.1893
     44 C         -11.2582    3.9331    2.2346 C.1     1  LIG1        0.1198
     45 N         -15.3309    6.9154   -2.2392 N.1     1  LIG1       -0.1908
     46 C         -14.6086    6.4076   -1.5077 C.1     1  LIG1        0.1007
@<TRIPOS>BOND
     1    45    46    3
     2    41    37    1
     3    46    38    1
     4    21    14    1
     5    33    31    1
     6    14    19   ar
     7    14    15   ar
     8    37    38   ar
     9    37    36   ar
    10    19    18   ar
    11    13    11    1
    12    12    11    1
    13    38    39   ar
    14     9    10    3
    15     8     2    1
    16    10     1    1
    17     7     3    1
    18     2     1   ar
    19     2     3   ar
    20     1     6   ar
    21     3     4   ar
    22    29    30    3
    23     4    11    1
    24     4     5   ar
    25     6     5   ar
    26    30    25    1
    27     5    15    1
    28    31    26    1
    29    31    32    1
    30    31    34    1
    31    15    16   ar
    32    25    26   ar
    33    25    24   ar
    34    26    27   ar
    35    18    24    1
    36    18    17   ar
    37    24    28   ar
    38    27    28   ar
    39    27    36    1
    40    36    35   ar
    41    39    42    1
    42    39    40   ar
    43    16    17   ar
    44    16    20    1
    45    17    22    1
    46    35    40   ar
    47    35    44    1
    48    22    23    1
    49    44    43    3
