@<TRIPOS>MOLECULE
mol_data/opt/m06hf/geoms/mol2/6dh6dh-6dh-6dh.out
 50 53 0 0 0
SMALL
GASTEIGER

@<TRIPOS>ATOM
      1 C          -4.4267   -2.2297    0.0475 C.ar    1  LIG1        0.1408
      2 C          -3.0345   -2.2557    0.1485 C.ar    1  LIG1       -0.0240
      3 C          -2.3550   -1.0542    0.1576 C.ar    1  LIG1       -0.0363
      4 C          -3.0679    0.1539    0.0796 C.ar    1  LIG1        0.0511
      5 C          -4.4815    0.0557    0.0518 C.ar    1  LIG1        0.0958
      6 N          -5.1236   -1.1018    0.0026 N.ar    1  LIG1       -0.2344
      7 H          -1.2738   -1.0327    0.2038 H       1  LIG1        0.0637
      8 H          -2.5118   -3.2003    0.2043 H       1  LIG1        0.0646
      9 N          -5.7365   -4.4747   -0.0575 N.1     1  LIG1       -0.1893
     10 C          -5.1759   -3.4753   -0.0088 C.1     1  LIG1        0.1191
     11 N          -2.4156    1.3463   -0.0301 N.pl3   1  LIG1       -0.3563
     12 H          -1.4604    1.3967    0.2866 H       1  LIG1        0.1424
     13 H          -2.9354    2.2079    0.0386 H       1  LIG1        0.1424
     14 C          -5.2851    2.2753    0.9944 C.ar    1  LIG1        0.1500
     15 C          -5.3506    1.2707    0.0193 C.ar    1  LIG1        0.0398
     16 C          -6.2934    1.4114   -0.9879 C.ar    1  LIG1       -0.0270
     17 C          -7.1089    2.5461   -1.0318 C.ar    1  LIG1        0.0517
     18 C          -6.9191    3.5116   -0.0147 C.ar    1  LIG1        0.0958
     19 N          -6.0423    3.3656    0.9620 N.ar    1  LIG1       -0.2337
     20 H          -6.3835    0.6348   -1.7374 H       1  LIG1        0.0644
     21 N          -3.6402    2.0110    2.9940 N.1     1  LIG1       -0.1893
     22 C          -4.3786    2.1443    2.1264 C.1     1  LIG1        0.1198
     23 N          -8.0599    2.7170   -2.0052 N.pl3   1  LIG1       -0.3563
     24 H          -8.3820    3.6574   -2.1825 H       1  LIG1        0.1424
     25 H          -8.0036    2.1211   -2.8168 H       1  LIG1        0.1424
     26 C          -7.0228    6.0157   -0.1122 C.ar    1  LIG1        0.1500
     27 C          -7.6931    4.7890   -0.0212 C.ar    1  LIG1        0.0398
     28 C          -9.0761    4.8119    0.0503 C.ar    1  LIG1       -0.0270
     29 C          -9.7623    6.0364    0.0618 C.ar    1  LIG1        0.0517
     30 C          -8.9718    7.2108    0.0349 C.ar    1  LIG1        0.0958
     31 N          -7.6516    7.1812   -0.0842 N.ar    1  LIG1       -0.2337
     32 H          -9.6303    3.8813    0.0951 H       1  LIG1        0.0644
     33 N          -4.4429    6.0409   -0.4520 N.1     1  LIG1       -0.1893
     34 C          -5.5769    6.0442   -0.2822 C.1     1  LIG1        0.1198
     35 N         -11.1292    6.0679    0.0288 N.pl3   1  LIG1       -0.3563
     36 H         -11.5886    6.9452    0.2208 H       1  LIG1        0.1424
     37 H         -11.6161    5.2616    0.3906 H       1  LIG1        0.1424
     38 C         -10.4103    9.0128    1.1125 C.ar    1  LIG1        0.1493
     39 C          -9.5716    8.5802    0.0797 C.ar    1  LIG1        0.0398
     40 C          -9.2320    9.4989   -0.9066 C.ar    1  LIG1       -0.0276
     41 C          -9.7475   10.7949   -0.8532 C.ar    1  LIG1        0.0436
     42 C         -10.6113   11.1021    0.2218 C.ar    1  LIG1        0.0497
     43 N         -10.9209   10.2432    1.1703 N.ar    1  LIG1       -0.2421
     44 H          -8.5576    9.1983   -1.6988 H       1  LIG1        0.0644
     45 H         -11.0459   12.0927    0.2998 H       1  LIG1        0.0849
     46 N         -11.0167    7.3877    3.0531 N.1     1  LIG1       -0.1893
     47 C         -10.7460    8.1226    2.2145 C.1     1  LIG1        0.1198
     48 N          -9.4745   11.7299   -1.8175 N.pl3   1  LIG1       -0.3568
     49 H          -8.6761   11.5745   -2.4128 H       1  LIG1        0.1424
     50 H          -9.6626   12.6967   -1.6035 H       1  LIG1        0.1424
@<TRIPOS>BOND
     1    25    23    1
     2    49    48    1
     3    24    23    1
     4    23    17    1
     5    48    50    1
     6    48    41    1
     7    20    16    1
     8    44    40    1
     9    17    16   ar
    10    17    18   ar
    11    16    15   ar
    12    40    41   ar
    13    40    39   ar
    14    41    42   ar
    15    33    34    3
    16    34    26    1
    17    26    31   ar
    18    26    27   ar
    19    31    30   ar
    20     9    10    3
    21    11    13    1
    22    11     4    1
    23    11    12    1
    24    27    18    1
    25    27    28   ar
    26    18    19   ar
    27    10     1    1
    28     6     1   ar
    29     6     5   ar
    30    15     5    1
    31    15    14   ar
    32    35    29    1
    33    35    36    1
    34    35    37    1
    35    30    29   ar
    36    30    39    1
    37     1     2   ar
    38    28    29   ar
    39    28    32    1
    40     5     4   ar
    41     4     3   ar
    42    39    38   ar
    43     2     3   ar
    44     2     8    1
    45     3     7    1
    46    42    45    1
    47    42    43   ar
    48    19    14   ar
    49    14    22    1
    50    38    43   ar
    51    38    47    1
    52    22    21    3
    53    47    46    3
