@<TRIPOS>MOLECULE
mol_data/opt/m06hf/geoms/mol2/6dh6dh6dh.out
 38 40 0 0 0
SMALL
GASTEIGER

@<TRIPOS>ATOM
      1 C          -3.0645   -1.0972    1.3325 C.ar    1  LIG1        0.1408
      2 C          -3.1332   -2.1758    0.4492 C.ar    1  LIG1       -0.0240
      3 C          -3.9268   -2.0528   -0.6738 C.ar    1  LIG1       -0.0363
      4 C          -4.6473   -0.8682   -0.8944 C.ar    1  LIG1        0.0511
      5 C          -4.5463    0.1341    0.1022 C.ar    1  LIG1        0.0958
      6 N          -3.7542    0.0227    1.1578 N.ar    1  LIG1       -0.2344
      7 H          -3.9837   -2.8542   -1.3993 H       1  LIG1        0.0637
      8 H          -2.5654   -3.0746    0.6446 H       1  LIG1        0.0646
      9 N          -1.5402   -1.2708    3.4336 N.1     1  LIG1       -0.1893
     10 C          -2.2173   -1.1769    2.5125 C.1     1  LIG1        0.1191
     11 N          -5.3538   -0.6811   -2.0471 N.pl3   1  LIG1       -0.3563
     12 H          -5.6543   -1.4965   -2.5576 H       1  LIG1        0.1424
     13 H          -5.9590    0.1213   -2.1260 H       1  LIG1        0.1424
     14 C          -6.7012    1.4698   -0.0948 C.ar    1  LIG1        0.1500
     15 C          -5.3031    1.4195    0.0025 C.ar    1  LIG1        0.0398
     16 C          -4.6240    2.6233    0.0786 C.ar    1  LIG1       -0.0270
     17 C          -5.3220    3.8373    0.0195 C.ar    1  LIG1        0.0517
     18 C          -6.7267    3.7586   -0.1673 C.ar    1  LIG1        0.0958
     19 N          -7.3787    2.6086   -0.1831 N.ar    1  LIG1       -0.2337
     20 H          -3.5494    2.6157    0.2131 H       1  LIG1        0.0644
     21 N          -8.0885   -0.7326   -0.0902 N.1     1  LIG1       -0.1893
     22 C          -7.4909    0.2467   -0.0818 C.1     1  LIG1        0.1198
     23 N          -4.6780    5.0245    0.1923 N.pl3   1  LIG1       -0.3563
     24 H          -3.6797    5.0493    0.0574 H       1  LIG1        0.1424
     25 H          -5.1644    5.8826   -0.0145 H       1  LIG1        0.1424
     26 C          -7.3685    5.9443   -1.2894 C.ar    1  LIG1        0.1493
     27 C          -7.5757    4.9831   -0.2939 C.ar    1  LIG1        0.0398
     28 C          -8.6482    5.1619    0.5704 C.ar    1  LIG1       -0.0276
     29 C          -9.4583    6.2932    0.4400 C.ar    1  LIG1        0.0436
     30 C          -9.1296    7.2083   -0.5862 C.ar    1  LIG1        0.0497
     31 N          -8.1273    7.0327   -1.4212 N.ar    1  LIG1       -0.2421
     32 H          -8.8484    4.4137    1.3272 H       1  LIG1        0.0644
     33 H          -9.7274    8.1027   -0.7225 H       1  LIG1        0.0849
     34 N          -5.4465    5.6013   -3.0112 N.1     1  LIG1       -0.1893
     35 C          -6.3063    5.7673   -2.2692 C.1     1  LIG1        0.1198
     36 N         -10.5405    6.5094    1.2424 N.pl3   1  LIG1       -0.3568
     37 H         -10.6652    5.9465    2.0672 H       1  LIG1        0.1424
     38 H         -10.9822    7.4141    1.2452 H       1  LIG1        0.1424
@<TRIPOS>BOND
     1    34    35    3
     2    12    11    1
     3    35    26    1
     4    13    11    1
     5    11     4    1
     6    31    26   ar
     7    31    30   ar
     8     7     3    1
     9    26    27   ar
    10     4     3   ar
    11     4     5   ar
    12    33    30    1
    13     3     2   ar
    14    30    29   ar
    15    27    18    1
    16    27    28   ar
    17    19    18   ar
    18    19    14   ar
    19    18    17   ar
    20    14    22    1
    21    14    15   ar
    22    21    22    3
    23    25    23    1
    24    15    16   ar
    25    15     5    1
    26    17    16   ar
    27    17    23    1
    28    24    23    1
    29    16    20    1
    30     5     6   ar
    31    29    28   ar
    32    29    36    1
    33     2     8    1
    34     2     1   ar
    35    28    32    1
    36     6     1   ar
    37    36    38    1
    38    36    37    1
    39     1    10    1
    40    10     9    3
