@<TRIPOS>MOLECULE
mol_data/opt/m06hf/geoms/mol2/6dh6dh6dh-6dh-.out
 50 53 0 0 0
SMALL
GASTEIGER

@<TRIPOS>ATOM
      1 C          -4.0738   -1.8807    1.2249 C.ar    1  LIG1        0.1408
      2 C          -2.9785   -2.1985    0.4211 C.ar    1  LIG1       -0.0240
      3 C          -2.6349   -1.3239   -0.5938 C.ar    1  LIG1       -0.0363
      4 C          -3.3820   -0.1550   -0.7829 C.ar    1  LIG1        0.0511
      5 C          -4.4561    0.0728    0.1072 C.ar    1  LIG1        0.0958
      6 N          -4.7881   -0.7739    1.0687 N.ar    1  LIG1       -0.2344
      7 H          -1.7975   -1.5386   -1.2459 H       1  LIG1        0.0637
      8 H          -2.4261   -3.1115    0.5937 H       1  LIG1        0.0646
      9 N          -4.7392   -3.5188    3.1331 N.1     1  LIG1       -0.1893
     10 C          -4.4669   -2.7828    2.2969 C.1     1  LIG1        0.1191
     11 N          -3.0641    0.7514   -1.7719 N.pl3   1  LIG1       -0.3563
     12 H          -2.4811    0.4093   -2.5212 H       1  LIG1        0.1424
     13 H          -3.8068    1.3663   -2.0747 H       1  LIG1        0.1424
     14 C          -6.6894    1.2193   -0.1066 C.ar    1  LIG1        0.1500
     15 C          -5.2945    1.3050    0.0015 C.ar    1  LIG1        0.0398
     16 C          -4.7253    2.5683    0.0248 C.ar    1  LIG1       -0.0270
     17 C          -5.5350    3.7139   -0.0313 C.ar    1  LIG1        0.0517
     18 C          -6.9343    3.4975   -0.0499 C.ar    1  LIG1        0.0958
     19 N          -7.4715    2.2887   -0.1265 N.ar    1  LIG1       -0.2337
     20 H          -3.6478    2.6725    0.0814 H       1  LIG1        0.0644
     21 N          -7.8683   -1.0812   -0.3972 N.1     1  LIG1       -0.1893
     22 C          -7.3485   -0.0709   -0.2437 C.1     1  LIG1        0.1198
     23 N          -4.9812    4.9571   -0.1276 N.pl3   1  LIG1       -0.3563
     24 H          -4.0361    5.0798    0.2008 H       1  LIG1        0.1424
     25 H          -5.5720    5.7692   -0.0302 H       1  LIG1        0.1424
     26 C          -7.9084    5.6206    0.9497 C.ar    1  LIG1        0.1500
     27 C          -7.9065    4.6315   -0.0424 C.ar    1  LIG1        0.0398
     28 C          -8.8799    4.7064   -1.0284 C.ar    1  LIG1       -0.0270
     29 C          -9.7901    5.7669   -1.0351 C.ar    1  LIG1        0.0517
     30 C          -9.6648    6.7274   -0.0036 C.ar    1  LIG1        0.0958
     31 N          -8.7600    6.6401    0.9535 N.ar    1  LIG1       -0.2337
     32 H          -8.9200    3.9370   -1.7896 H       1  LIG1        0.0644
     33 N          -6.1980    5.4947    2.9074 N.1     1  LIG1       -0.1893
     34 C          -6.9678    5.5591    2.0593 C.1     1  LIG1        0.1198
     35 N         -10.7748    5.8728   -1.9846 N.pl3   1  LIG1       -0.3563
     36 H         -11.1731    6.7880   -2.1371 H       1  LIG1        0.1424
     37 H         -10.6844    5.3002   -2.8096 H       1  LIG1        0.1424
     38 C         -10.0021    9.2085   -0.0966 C.ar    1  LIG1        0.1493
     39 C         -10.5518    7.9295    0.0281 C.ar    1  LIG1        0.0398
     40 C         -11.9274    7.8157    0.1881 C.ar    1  LIG1       -0.0276
     41 C         -12.7090    8.9759    0.2435 C.ar    1  LIG1        0.0436
     42 C         -12.0378   10.2108    0.1164 C.ar    1  LIG1        0.0497
     43 N         -10.7344   10.3188   -0.0525 N.ar    1  LIG1       -0.2421
     44 H         -12.3807    6.8366    0.2912 H       1  LIG1        0.0644
     45 H         -12.6012   11.1367    0.1576 H       1  LIG1        0.0849
     46 N          -7.4465    9.4452   -0.5263 N.1     1  LIG1       -0.1893
     47 C          -8.5716    9.3600   -0.3210 C.1     1  LIG1        0.1198
     48 N         -14.0594    8.9330    0.4433 N.pl3   1  LIG1       -0.3568
     49 H         -14.6064    9.7675    0.3098 H       1  LIG1        0.1424
     50 H         -14.5472    8.0569    0.3620 H       1  LIG1        0.1424
@<TRIPOS>BOND
     1    37    35    1
     2    12    11    1
     3    36    35    1
     4    13    11    1
     5    35    29    1
     6    32    28    1
     7    11     4    1
     8     7     3    1
     9    29    28   ar
    10    29    30   ar
    11    28    27   ar
    12     4     3   ar
    13     4     5   ar
    14     3     2   ar
    15    46    47    3
    16    21    22    3
    17    47    38    1
    18    22    14    1
    19    23    17    1
    20    23    25    1
    21    23    24    1
    22    19    14   ar
    23    19    18   ar
    24    14    15   ar
    25    38    43   ar
    26    38    39   ar
    27    43    42   ar
    28    18    27    1
    29    18    17   ar
    30    27    26   ar
    31    17    16   ar
    32    30    39    1
    33    30    31   ar
    34    15    16   ar
    35    15     5    1
    36    16    20    1
    37    39    40   ar
    38     5     6   ar
    39    42    45    1
    40    42    41   ar
    41    40    41   ar
    42    40    44    1
    43    41    48    1
    44    49    48    1
    45    50    48    1
    46     2     8    1
    47     2     1   ar
    48    26    31   ar
    49    26    34    1
    50     6     1   ar
    51     1    10    1
    52    34    33    3
    53    10     9    3
