@<TRIPOS>MOLECULE
mol_data/opt/m06hf/geoms/mol2/6dh6af12fd4df12il-12dh-4ha-13fh-.out
 92 99 0 0 0
SMALL
GASTEIGER

@<TRIPOS>ATOM
      1 C          -3.7516   -1.6056   -0.3850 C.ar    1  LIG1        0.1408
      2 C          -2.3977   -1.6198   -0.7131 C.ar    1  LIG1       -0.0240
      3 C          -1.7768   -0.4087   -0.9621 C.ar    1  LIG1       -0.0363
      4 C          -2.5079    0.7812   -0.8674 C.ar    1  LIG1        0.0510
      5 C          -3.8690    0.6800   -0.4836 C.ar    1  LIG1        0.0946
      6 N          -4.4597   -0.4878   -0.2744 N.ar    1  LIG1       -0.2345
      7 H          -0.7306   -0.3746   -1.2390 H       1  LIG1        0.0637
      8 H          -1.8617   -2.5556   -0.7814 H       1  LIG1        0.0646
      9 N          -4.9656   -3.8693    0.0320 N.1     1  LIG1       -0.1893
     10 C          -4.4495   -2.8604   -0.1453 C.1     1  LIG1        0.1191
     11 N          -1.9183    1.9997   -1.1162 N.pl3   1  LIG1       -0.3563
     12 H          -1.0398    1.9815   -1.6118 H       1  LIG1        0.1424
     13 H          -2.5327    2.7573   -1.3804 H       1  LIG1        0.1424
     14 C          -6.0609    1.8270   -0.7963 C.ar    1  LIG1        0.0379
     15 C          -4.7385    1.8826   -0.3310 C.ar    1  LIG1        0.0238
     16 C          -4.3162    3.0467    0.2961 C.ar    1  LIG1       -0.0072
     17 C          -5.1998    4.1199    0.4318 C.ar    1  LIG1        0.1465
     18 C          -6.4929    3.9674   -0.0895 C.ar    1  LIG1        0.1509
     19 N          -6.8983    2.8403   -0.6820 N.ar    1  LIG1       -0.2474
     20 H          -3.3245    3.1462    0.7208 H       1  LIG1        0.0662
     21 H          -6.4295    0.9236   -1.2647 H       1  LIG1        0.0836
     22 O          -4.7573    5.1997    1.1059 O.3     1  LIG1       -0.5045
     23 H          -5.2339    6.0173    0.8827 H       1  LIG1        0.2922
     24 C          -7.5175    5.0206    0.0197 C.ar    1  LIG1        0.1998
     25 C          -7.4920    6.3739    0.1563 C.ar    1  LIG1        0.1827
     26 C          -8.8530    6.8212    0.2020 C.ar    1  LIG1        0.1395
     27 C          -9.6171    5.6925    0.0687 C.ar    1  LIG1        0.1581
     28 O          -8.8166    4.6299   -0.0343 O.2     1  LIG1       -0.4480
     29 O          -6.3818    7.1546    0.2127 O.3     1  LIG1       -0.5023
     30 H          -6.6050    8.0692    0.4334 H       1  LIG1        0.2923
     31 N          -9.3749    9.2877    0.7203 N.1     1  LIG1       -0.1906
     32 C          -9.2133    8.1792    0.4688 C.1     1  LIG1        0.1067
     33 C         -11.9936    6.2849   -0.5152 C.ar    1  LIG1        0.0633
     34 C         -13.3533    5.9747   -0.4599 C.ar    1  LIG1       -0.0295
     35 C         -11.0636    5.4285    0.0852 C.ar    1  LIG1        0.0395
     36 C         -13.8066    4.8284    0.1830 C.ar    1  LIG1        0.0603
     37 H         -14.0633    6.6215   -0.9577 H       1  LIG1        0.0639
     38 C         -11.5056    4.2662    0.7119 C.ar    1  LIG1       -0.0075
     39 C         -12.8630    3.9632    0.7690 C.ar    1  LIG1        0.1283
     40 H         -10.7799    3.6017    1.1647 H       1  LIG1        0.0662
     41 N         -11.2652    8.3350   -1.9258 N.1     1  LIG1       -0.1908
     42 C         -11.5740    7.4335   -1.2863 C.1     1  LIG1        0.0999
     43 O         -13.3211    2.8665    1.3972 O.3     1  LIG1       -0.5060
     44 H         -12.5980    2.3233    1.7287 H       1  LIG1        0.2922
     45 C         -15.2491    4.5462    0.2382 C.ar    1  LIG1        0.1459
     46 C         -16.3117    5.3734    0.4644 C.ar    1  LIG1        0.0379
     47 C         -17.4624    4.5159    0.3791 C.ar    1  LIG1        0.1722
     48 C         -17.0031    3.2596    0.1054 C.ar    1  LIG1        0.2135
     49 O         -15.6575    3.2786    0.0241 O.2     1  LIG1       -0.4475
     50 C         -16.3239    6.8330    0.8403 C.3     1  LIG1       -0.0326
     51 H         -17.1455    7.0091    1.5354 H       1  LIG1        0.0280
     52 H         -16.4673    7.4692   -0.0355 H       1  LIG1        0.0280
     53 H         -15.3857    7.1065    1.3230 H       1  LIG1        0.0280
     54 O         -18.7510    4.8573    0.6042 O.3     1  LIG1       -0.4909
     55 C         -19.3345    5.6865   -0.4062 C.3     1  LIG1        0.0790
     56 H         -20.3873    5.7695   -0.1531 H       1  LIG1        0.0660
     57 H         -18.8606    6.6700   -0.4061 H       1  LIG1        0.0660
     58 H         -19.2274    5.2135   -1.3827 H       1  LIG1        0.0660
     59 C         -17.6748    1.9858   -0.0563 C.ar    1  LIG1        0.1934
     60 C         -18.9784    1.6448   -0.3046 C.ar    1  LIG1        0.1218
     61 C         -19.0283    0.2017   -0.3515 C.ar    1  LIG1        0.0894
     62 C         -17.7369   -0.2121   -0.1553 C.ar    1  LIG1        0.1594
     63 O         -16.9341    0.8836    0.0327 O.2     1  LIG1       -0.4483
     64 N         -21.0505    3.0942   -0.7945 N.1     1  LIG1       -0.1907
     65 C         -20.1027    2.4921   -0.5496 C.1     1  LIG1        0.1050
     66 N         -20.1784   -0.5484   -0.4761 N.pl3   1  LIG1       -0.3540
     67 H         -20.9710   -0.0429   -0.8474 H       1  LIG1        0.1425
     68 H         -20.0276   -1.4663   -0.8891 H       1  LIG1        0.1425
     69 C         -17.4896   -2.6023   -0.8442 C.ar    1  LIG1        0.0360
     70 C         -16.9296   -3.8628   -0.6467 C.ar    1  LIG1       -0.0311
     71 C         -17.1203   -1.5342   -0.0102 C.ar    1  LIG1        0.0398
     72 C         -15.9814   -4.0753    0.3547 C.ar    1  LIG1        0.0037
     73 H         -17.2174   -4.6905   -1.2840 H       1  LIG1        0.0643
     74 C         -16.1546   -1.7509    0.9769 C.ar    1  LIG1       -0.0486
     75 C         -15.5914   -3.0017    1.1671 C.ar    1  LIG1       -0.0517
     76 H         -15.8720   -0.9211    1.6119 H       1  LIG1        0.0625
     77 N         -18.4358   -2.3928   -1.8688 N.pl3   1  LIG1       -0.3574
     78 H         -18.2906   -1.5062   -2.3453 H       1  LIG1        0.1423
     79 H         -18.4718   -3.1576   -2.5313 H       1  LIG1        0.1423
     80 H         -14.8853   -3.1458    1.9746 H       1  LIG1        0.0624
     81 C         -15.4092   -5.4154    0.5172 C.ar    1  LIG1        0.0904
     82 C         -15.8524   -6.6398    0.0674 C.ar    1  LIG1        0.1628
     83 C         -14.9489   -7.6405    0.5077 C.ar    1  LIG1        0.0848
     84 C         -13.9559   -6.9975    1.2147 C.ar    1  LIG1        0.0267
     85 N         -14.2473   -5.6709    1.2179 N.ar    1  LIG1       -0.3561
     86 H         -13.6426   -4.9542    1.5821 H       1  LIG1        0.1655
     87 H         -13.0756   -7.3846    1.6985 H       1  LIG1        0.0827
     88 O         -16.9615   -6.9139   -0.6648 O.3     1  LIG1       -0.5031
     89 H         -16.9542   -7.8775   -0.7833 H       1  LIG1        0.2923
     90 N         -15.1895   -9.0099    0.1881 N.pl3   1  LIG1       -0.3540
     91 H         -14.4356   -9.4191   -0.3533 H       1  LIG1        0.1425
     92 H         -15.3474   -9.5758    1.0147 H       1  LIG1        0.1425
@<TRIPOS>BOND
     1    79    77    1
     2    78    77    1
     3    41    42    3
     4    77    69    1
     5    12    11    1
     6    58    55    1
     7    13    11    1
     8    42    33    1
     9    73    70    1
    10    21    14    1
    11     7     3    1
    12    11     4    1
    13     3     4   ar
    14     3     2   ar
    15    37    34    1
    16    68    66    1
    17     4     5   ar
    18    67    66    1
    19    69    70   ar
    20    69    71   ar
    21    14    19   ar
    22    14    15   ar
    23    64    65    3
    24    89    88    1
    25     8     2    1
    26     2     1   ar
    27    19    18   ar
    28    88    82    1
    29    70    72   ar
    30    65    60    1
    31    33    34   ar
    32    33    35   ar
    33     5    15    1
    34     5     6   ar
    35    66    61    1
    36    34    36   ar
    37    55    57    1
    38    55    56    1
    39    55    54    1
    40     1     6   ar
    41     1    10    1
    42    91    90    1
    43    61    60   ar
    44    61    62   ar
    45    15    16   ar
    46    60    59   ar
    47    62    71    1
    48    62    63   ar
    49    10     9    3
    50    18    24    1
    51    18    17   ar
    52    59    63   ar
    53    59    48    1
    54    52    50    1
    55    28    24   ar
    56    28    27   ar
    57    71    74   ar
    58    24    25   ar
    59    49    48   ar
    60    49    45   ar
    61    82    83   ar
    62    82    81   ar
    63    27    35    1
    64    27    26   ar
    65    35    38   ar
    66    48    47   ar
    67    25    26   ar
    68    25    29    1
    69    36    45    1
    70    36    39   ar
    71    90    83    1
    72    90    92    1
    73    26    32    1
    74    29    30    1
    75    45    46   ar
    76    16    17   ar
    77    16    20    1
    78    72    81    1
    79    72    75   ar
    80    47    46   ar
    81    47    54    1
    82    17    22    1
    83    46    50    1
    84    32    31    3
    85    83    84   ar
    86    81    85   ar
    87    38    39   ar
    88    38    40    1
    89    39    43    1
    90    50    53    1
    91    50    51    1
    92    23    22    1
    93    74    75   ar
    94    74    76    1
    95    75    80    1
    96    84    85   ar
    97    84    87    1
    98    85    86    1
    99    43    44    1
