@<TRIPOS>MOLECULE
mol_data/opt/m06hf/geoms/mol2/6dh6dh6dh6dh.out
 50 53 0 0 0
SMALL
GASTEIGER

@<TRIPOS>ATOM
      1 C          -2.2797   -0.7224    0.1030 C.ar    1  LIG1        0.1408
      2 C          -2.7261   -2.0375    0.2417 C.ar    1  LIG1       -0.0240
      3 C          -4.0872   -2.2669    0.2698 C.ar    1  LIG1       -0.0363
      4 C          -4.9806   -1.1880    0.1723 C.ar    1  LIG1        0.0511
      5 C          -4.4106    0.1068    0.0985 C.ar    1  LIG1        0.0958
      6 N          -3.1041    0.3149    0.0352 N.ar    1  LIG1       -0.2344
      7 H          -4.4752   -3.2744    0.3458 H       1  LIG1        0.0637
      8 H          -2.0146   -2.8482    0.3111 H       1  LIG1        0.0646
      9 N           0.2751   -0.2521   -0.0331 N.1     1  LIG1       -0.1893
     10 C          -0.8545   -0.4408    0.0287 C.1     1  LIG1        0.1191
     11 N          -6.3261   -1.3985    0.0871 N.pl3   1  LIG1       -0.3563
     12 H          -6.6941   -2.2679    0.4390 H       1  LIG1        0.1424
     13 H          -6.9521   -0.6110    0.1481 H       1  LIG1        0.1424
     14 C          -6.2049    1.6593    1.0171 C.ar    1  LIG1        0.1500
     15 C          -5.2580    1.3372    0.0336 C.ar    1  LIG1        0.0398
     16 C          -5.0685    2.2423   -0.9963 C.ar    1  LIG1       -0.0270
     17 C          -5.8325    3.4168   -1.0575 C.ar    1  LIG1        0.0517
     18 C          -6.8224    3.5863   -0.0528 C.ar    1  LIG1        0.0958
     19 N          -6.9624    2.7493    0.9596 N.ar    1  LIG1       -0.2337
     20 H          -4.3038    2.0458   -1.7374 H       1  LIG1        0.0644
     21 N          -6.5350    0.0983    3.0729 N.1     1  LIG1       -0.1893
     22 C          -6.3906    0.8031    2.1790 C.1     1  LIG1        0.1198
     23 N          -5.6040    4.3569   -2.0069 N.pl3   1  LIG1       -0.3563
     24 H          -5.0339    4.1314   -2.8049 H       1  LIG1        0.1424
     25 H          -6.2032    5.1625   -2.0864 H       1  LIG1        0.1424
     26 C          -8.5882    5.0559   -1.1295 C.ar    1  LIG1        0.1500
     27 C          -7.7379    4.7673   -0.0525 C.ar    1  LIG1        0.0398
     28 C          -7.8139    5.5840    1.0623 C.ar    1  LIG1       -0.0270
     29 C          -8.6894    6.6791    1.0798 C.ar    1  LIG1        0.0517
     30 C          -9.4357    6.9197   -0.1037 C.ar    1  LIG1        0.0958
     31 N          -9.4016    6.1055   -1.1449 N.ar    1  LIG1       -0.2337
     32 H          -7.2082    5.3519    1.9296 H       1  LIG1        0.0644
     33 N          -8.6533    3.4612   -3.1852 N.1     1  LIG1       -0.1893
     34 C          -8.6388    4.1736   -2.2859 C.1     1  LIG1        0.1198
     35 N          -8.8468    7.4311    2.2020 N.pl3   1  LIG1       -0.3563
     36 H          -8.1406    7.3784    2.9186 H       1  LIG1        0.1424
     37 H          -9.3541    8.3002    2.1505 H       1  LIG1        0.1424
     38 C          -9.9495    9.4072   -0.0674 C.ar    1  LIG1        0.1493
     39 C         -10.3691    8.0818   -0.2255 C.ar    1  LIG1        0.0398
     40 C         -11.6982    7.8556   -0.5589 C.ar    1  LIG1       -0.0276
     41 C         -12.5700    8.9392   -0.6998 C.ar    1  LIG1        0.0436
     42 C         -12.0344   10.2300   -0.4858 C.ar    1  LIG1        0.0497
     43 N         -10.7713   10.4504   -0.1888 N.ar    1  LIG1       -0.2421
     44 H         -12.0388    6.8400   -0.7187 H       1  LIG1        0.0644
     45 H         -12.6728   11.1016   -0.5796 H       1  LIG1        0.0849
     46 N          -7.4504    9.9202    0.4473 N.1     1  LIG1       -0.1893
     47 C          -8.5535    9.7115    0.2094 C.1     1  LIG1        0.1198
     48 N         -13.8768    8.7793   -1.0513 N.pl3   1  LIG1       -0.3568
     49 H         -14.2835    7.8594   -1.0653 H       1  LIG1        0.1424
     50 H         -14.5115    9.5578   -0.9900 H       1  LIG1        0.1424
@<TRIPOS>BOND
     1    33    34    3
     2    24    23    1
     3    34    26    1
     4    25    23    1
     5    23    17    1
     6    20    16    1
     7    31    26   ar
     8    31    30   ar
     9    26    27   ar
    10    49    48    1
    11    17    16   ar
    12    17    18   ar
    13    48    50    1
    14    48    41    1
    15    16    15   ar
    16    44    40    1
    17    41    40   ar
    18    41    42   ar
    19    45    42    1
    20    40    39   ar
    21    42    43   ar
    22    39    30    1
    23    39    38   ar
    24    43    38   ar
    25    30    29   ar
    26    38    47    1
    27    18    27    1
    28    18    19   ar
    29    27    28   ar
    30     9    10    3
    31    10     1    1
    32    15     5    1
    33    15    14   ar
    34     6     5   ar
    35     6     1   ar
    36    11    13    1
    37    11     4    1
    38    11    12    1
    39     5     4   ar
    40     1     2   ar
    41     4     3   ar
    42    47    46    3
    43     2     3   ar
    44     2     8    1
    45     3     7    1
    46    19    14   ar
    47    14    22    1
    48    28    29   ar
    49    28    32    1
    50    29    35    1
    51    37    35    1
    52    22    21    3
    53    35    36    1
