@<TRIPOS>MOLECULE
mol_data/opt/m06hf/geoms/mol2/6dh6dh-6dh-6dh-.out
 50 53 0 0 0
SMALL
GASTEIGER

@<TRIPOS>ATOM
      1 C          -4.2790   -2.1702   -0.1801 C.ar    1  LIG1        0.1408
      2 C          -2.9402   -2.1806    0.2149 C.ar    1  LIG1       -0.0240
      3 C          -2.3359   -0.9765    0.5160 C.ar    1  LIG1       -0.0363
      4 C          -3.0724    0.2165    0.4310 C.ar    1  LIG1        0.0511
      5 C          -4.4408    0.0943    0.0837 C.ar    1  LIG1        0.0958
      6 N          -5.0031   -1.0600   -0.2404 N.ar    1  LIG1       -0.2344
      7 H          -1.2916   -0.9387    0.7982 H       1  LIG1        0.0637
      8 H          -2.3969   -3.1136    0.2673 H       1  LIG1        0.0646
      9 N          -5.4251   -4.4106   -0.8397 N.1     1  LIG1       -0.1893
     10 C          -4.9385   -3.4139   -0.5475 C.1     1  LIG1        0.1191
     11 N          -2.4704    1.4259    0.6131 N.pl3   1  LIG1       -0.3563
     12 H          -1.6042    1.4566    1.1267 H       1  LIG1        0.1424
     13 H          -3.0313    2.2624    0.6633 H       1  LIG1        0.1424
     14 C          -5.5383    2.1469    1.0996 C.ar    1  LIG1        0.1500
     15 C          -5.3363    1.2881    0.0108 C.ar    1  LIG1        0.0398
     16 C          -6.0325    1.5546   -1.1584 C.ar    1  LIG1       -0.0270
     17 C          -6.8699    2.6723   -1.2386 C.ar    1  LIG1        0.0517
     18 C          -6.9643    3.4842   -0.0817 C.ar    1  LIG1        0.0958
     19 N          -6.3234    3.2162    1.0411 N.ar    1  LIG1       -0.2337
     20 H          -5.9141    0.8903   -2.0057 H       1  LIG1        0.0644
     21 N          -4.3763    1.6415    3.3733 N.1     1  LIG1       -0.1893
     22 C          -4.9016    1.8766    2.3809 C.1     1  LIG1        0.1198
     23 N          -7.5787    2.9634   -2.3732 N.pl3   1  LIG1       -0.3563
     24 H          -7.9108    3.9093   -2.4958 H       1  LIG1        0.1424
     25 H          -7.3168    2.4853   -3.2214 H       1  LIG1        0.1424
     26 C          -7.2006    5.9722    0.1608 C.ar    1  LIG1        0.1500
     27 C          -7.7899    4.7281   -0.0947 C.ar    1  LIG1        0.0398
     28 C          -9.1525    4.6926   -0.3445 C.ar    1  LIG1       -0.0270
     29 C          -9.9006    5.8794   -0.3378 C.ar    1  LIG1        0.0517
     30 C          -9.1806    7.0837   -0.1330 C.ar    1  LIG1        0.0958
     31 N          -7.8850    7.1081    0.1365 N.ar    1  LIG1       -0.2337
     32 H          -9.6447    3.7419   -0.5154 H       1  LIG1        0.0644
     33 N          -4.6399    6.1268    0.5973 N.1     1  LIG1       -0.1893
     34 C          -5.7715    6.0670    0.4188 C.1     1  LIG1        0.1198
     35 N         -11.2559    5.8565   -0.4662 N.pl3   1  LIG1       -0.3563
     36 H         -11.7545    6.7227   -0.5957 H       1  LIG1        0.1424
     37 H         -11.6895    5.0381   -0.8623 H       1  LIG1        0.1424
     38 C         -10.5382    8.8616   -1.3210 C.ar    1  LIG1        0.1493
     39 C          -9.8552    8.4163   -0.1837 C.ar    1  LIG1        0.0398
     40 C          -9.7595    9.2813    0.8984 C.ar    1  LIG1       -0.0276
     41 C         -10.3582   10.5418    0.8278 C.ar    1  LIG1        0.0436
     42 C         -11.0482   10.8644   -0.3622 C.ar    1  LIG1        0.0497
     43 N         -11.1257   10.0555   -1.3987 N.ar    1  LIG1       -0.2421
     44 H          -9.2103    8.9708    1.7787 H       1  LIG1        0.0644
     45 H         -11.5391   11.8267   -0.4570 H       1  LIG1        0.0849
     46 N         -10.6409    7.3209   -3.4167 N.1     1  LIG1       -0.1893
     47 C         -10.6005    8.0223   -2.5095 C.1     1  LIG1        0.1198
     48 N         -10.3242   11.4235    1.8734 N.pl3   1  LIG1       -0.3568
     49 H         -10.5606   12.3868    1.6964 H       1  LIG1        0.1424
     50 H          -9.6503   11.2716    2.6068 H       1  LIG1        0.1424
@<TRIPOS>BOND
     1    46    47    3
     2    25    23    1
     3    47    38    1
     4    24    23    1
     5    23    17    1
     6    20    16    1
     7    43    38   ar
     8    43    42   ar
     9    38    39   ar
    10    17    16   ar
    11    17    18   ar
    12    16    15   ar
    13    37    35    1
    14     9    10    3
    15    36    35    1
    16    10     1    1
    17    32    28    1
    18    35    29    1
    19    45    42    1
    20    42    41   ar
    21    28    29   ar
    22    28    27   ar
    23    29    30   ar
    24     6     1   ar
    25     6     5   ar
    26    39    30    1
    27    39    40   ar
    28     1     2   ar
    29    30    31   ar
    30    27    18    1
    31    27    26   ar
    32    18    19   ar
    33    15     5    1
    34    15    14   ar
    35     5     4   ar
    36    31    26   ar
    37    26    34    1
    38     2     8    1
    39     2     3   ar
    40    34    33    3
    41     4     3   ar
    42     4    11    1
    43     3     7    1
    44    11    13    1
    45    11    12    1
    46    41    40   ar
    47    41    48    1
    48    40    44    1
    49    19    14   ar
    50    14    22    1
    51    49    48    1
    52    48    50    1
    53    22    21    3
