@<TRIPOS>MOLECULE
mol_data/opt/m06hf/geoms/mol2/6dh6dh.out
 26 27 0 0 0
SMALL
GASTEIGER

@<TRIPOS>ATOM
      1 C          -4.4336   -1.9376    0.7913 C.ar    1  LIG1        0.1408
      2 C          -3.1475   -2.0941    0.2758 C.ar    1  LIG1       -0.0240
      3 C          -2.5804   -1.0345   -0.4099 C.ar    1  LIG1       -0.0363
      4 C          -3.3050    0.1531   -0.5626 C.ar    1  LIG1        0.0511
      5 C          -4.5948    0.1992    0.0126 C.ar    1  LIG1        0.0958
      6 N          -5.1362   -0.8185    0.6608 N.ar    1  LIG1       -0.2344
      7 H          -1.5862   -1.1188   -0.8303 H       1  LIG1        0.0637
      8 H          -2.6189   -3.0271    0.4110 H       1  LIG1        0.0646
      9 N          -5.4955   -3.9177    2.1026 N.1     1  LIG1       -0.1893
     10 C          -5.0524   -3.0329    1.5236 C.1     1  LIG1        0.1191
     11 N          -2.7789    1.2476   -1.2139 N.pl3   1  LIG1       -0.3563
     12 H          -2.0053    1.0684   -1.8368 H       1  LIG1        0.1424
     13 H          -3.4435    1.9233   -1.5638 H       1  LIG1        0.1424
     14 C          -6.6296    1.4231   -0.8194 C.ar    1  LIG1        0.1493
     15 C          -5.4272    1.4361   -0.1082 C.ar    1  LIG1        0.0398
     16 C          -5.0299    2.6269    0.4893 C.ar    1  LIG1       -0.0276
     17 C          -5.8496    3.7556    0.3849 C.ar    1  LIG1        0.0436
     18 C          -7.0458    3.6151   -0.3495 C.ar    1  LIG1        0.0497
     19 N          -7.4154    2.4919   -0.9329 N.ar    1  LIG1       -0.2421
     20 H          -4.1004    2.6658    1.0454 H       1  LIG1        0.0644
     21 H          -7.7156    4.4612   -0.4549 H       1  LIG1        0.0849
     22 N          -7.3665   -0.7306   -2.0795 N.1     1  LIG1       -0.1893
     23 C          -7.0561    0.2155   -1.5108 C.1     1  LIG1        0.1198
     24 N          -5.5382    4.9420    0.9911 N.pl3   1  LIG1       -0.3568
     25 H          -4.6101    5.0822    1.3537 H       1  LIG1        0.1424
     26 H          -6.0508    5.7704    0.7385 H       1  LIG1        0.1424
@<TRIPOS>BOND
     1    22    23    3
     2    12    11    1
     3    13    11    1
     4    23    14    1
     5    11     4    1
     6    19    14   ar
     7    19    18   ar
     8     7     3    1
     9    14    15   ar
    10     4     3   ar
    11     4     5   ar
    12    21    18    1
    13     3     2   ar
    14    18    17   ar
    15    15     5    1
    16    15    16   ar
    17     5     6   ar
    18     2     8    1
    19     2     1   ar
    20    17    16   ar
    21    17    24    1
    22    16    20    1
    23     6     1   ar
    24    26    24    1
    25     1    10    1
    26    24    25    1
    27    10     9    3
