@<TRIPOS>MOLECULE
mol_data/opt/m06hf/geoms/mol2/6dh6dh-4dh6dh.out
 51 54 0 0 0
SMALL
GASTEIGER

@<TRIPOS>ATOM
      1 C          -4.4456   -2.2572   -0.0228 C.ar    1  LIG1        0.1408
      2 C          -3.0521   -2.2902    0.0567 C.ar    1  LIG1       -0.0240
      3 C          -2.3676   -1.0915    0.0653 C.ar    1  LIG1       -0.0363
      4 C          -3.0770    0.1193    0.0075 C.ar    1  LIG1        0.0511
      5 C          -4.4910    0.0281    0.0006 C.ar    1  LIG1        0.0958
      6 N          -5.1390   -1.1264   -0.0474 N.ar    1  LIG1       -0.2344
      7 H          -1.2858   -1.0741    0.0943 H       1  LIG1        0.0637
      8 H          -2.5330   -3.2376    0.0963 H       1  LIG1        0.0646
      9 N          -5.7586   -4.5001   -0.1348 N.1     1  LIG1       -0.1893
     10 C          -5.1989   -3.5005   -0.0813 C.1     1  LIG1        0.1191
     11 N          -2.4199    1.3099   -0.1046 N.pl3   1  LIG1       -0.3563
     12 H          -1.4655    1.3551    0.2160 H       1  LIG1        0.1424
     13 H          -2.9379    2.1710   -0.0170 H       1  LIG1        0.1424
     14 C          -5.2664    2.2425    0.9767 C.ar    1  LIG1        0.1500
     15 C          -5.3522    1.2492   -0.0075 C.ar    1  LIG1        0.0398
     16 C          -6.3060    1.4105   -1.0012 C.ar    1  LIG1       -0.0270
     17 C          -7.1131    2.5520   -1.0224 C.ar    1  LIG1        0.0516
     18 C          -6.9038    3.5074    0.0032 C.ar    1  LIG1        0.0943
     19 N          -6.0146    3.3394    0.9650 N.ar    1  LIG1       -0.2338
     20 H          -6.4124    0.6436   -1.7586 H       1  LIG1        0.0644
     21 N          -3.6000    1.9447    2.9543 N.1     1  LIG1       -0.1893
     22 C          -4.3469    2.0925    2.0961 C.1     1  LIG1        0.1198
     23 N          -8.0710    2.7368   -1.9846 N.pl3   1  LIG1       -0.3563
     24 H          -8.4093    3.6762   -2.1342 H       1  LIG1        0.1424
     25 H          -8.0295    2.1502   -2.8034 H       1  LIG1        0.1424
     26 C          -6.9708    6.0119    0.0261 C.ar    1  LIG1        0.0617
     27 C          -7.6821    7.2076    0.0703 C.ar    1  LIG1       -0.0341
     28 C          -7.6664    4.7937    0.0249 C.ar    1  LIG1        0.0213
     29 C          -9.0722    7.2166    0.1070 C.ar    1  LIG1        0.0068
     30 H          -7.1449    8.1473    0.0882 H       1  LIG1        0.0637
     31 C          -9.0517    4.7959    0.0475 C.ar    1  LIG1       -0.0300
     32 C          -9.7830    5.9977    0.0825 C.ar    1  LIG1        0.0331
     33 H          -9.5841    3.8518    0.0451 H       1  LIG1        0.0643
     34 N          -4.3856    6.0861   -0.1702 N.1     1  LIG1       -0.1908
     35 C          -5.5273    6.0398   -0.0617 C.1     1  LIG1        0.0998
     36 N         -11.1527    5.9613    0.0323 N.pl3   1  LIG1       -0.3575
     37 H         -11.6547    6.8011    0.2791 H       1  LIG1        0.1423
     38 H         -11.5973    5.1118    0.3457 H       1  LIG1        0.1423
     39 C         -10.5845    8.9179    1.2207 C.ar    1  LIG1        0.1479
     40 C          -9.7804    8.5307    0.1414 C.ar    1  LIG1        0.0215
     41 C          -9.6278    9.4368   -0.9028 C.ar    1  LIG1       -0.0291
     42 C         -10.2654   10.6802   -0.8468 C.ar    1  LIG1        0.0436
     43 C         -11.0579   10.9465    0.2911 C.ar    1  LIG1        0.0497
     44 N         -11.2089   10.0939    1.2830 N.ar    1  LIG1       -0.2422
     45 H          -9.0172    9.1691   -1.7568 H       1  LIG1        0.0643
     46 H         -11.5739   11.8961    0.3805 H       1  LIG1        0.0849
     47 N         -10.9519    7.2723    3.2031 N.1     1  LIG1       -0.1893
     48 C         -10.7797    8.0171    2.3474 C.1     1  LIG1        0.1197
     49 N         -10.1191   11.6185   -1.8283 N.pl3   1  LIG1       -0.3568
     50 H          -9.7052   11.3553   -2.7070 H       1  LIG1        0.1424
     51 H         -10.7388   12.4119   -1.8465 H       1  LIG1        0.1424
@<TRIPOS>BOND
     1    25    23    1
     2    50    49    1
     3    24    23    1
     4    23    17    1
     5    51    49    1
     6    49    42    1
     7    20    16    1
     8    45    41    1
     9    17    16   ar
    10    17    18   ar
    11    16    15   ar
    12    41    42   ar
    13    41    40   ar
    14    42    43   ar
    15    34    35    3
    16     9    10    3
    17    11    13    1
    18    11     4    1
    19    11    12    1
    20    10     1    1
    21    35    26    1
    22     6     1   ar
    23     6     5   ar
    24     1     2   ar
    25    15     5    1
    26    15    14   ar
    27     5     4   ar
    28    18    28    1
    29    18    19   ar
    30     4     3   ar
    31    28    26   ar
    32    28    31   ar
    33    26    27   ar
    34    36    32    1
    35    36    37    1
    36    36    38    1
    37    33    31    1
    38    31    32   ar
    39     2     3   ar
    40     2     8    1
    41     3     7    1
    42    27    30    1
    43    27    29   ar
    44    32    29   ar
    45    29    40    1
    46    40    39   ar
    47    43    46    1
    48    43    44   ar
    49    19    14   ar
    50    14    22    1
    51    39    44   ar
    52    39    48    1
    53    22    21    3
    54    48    47    3
