@<TRIPOS>MOLECULE
mol_data/opt/m06hf/geoms/mol2/6dh6dh-6dh.out
 38 40 0 0 0
SMALL
GASTEIGER

@<TRIPOS>ATOM
      1 C          -4.4876   -2.0903    0.5073 C.ar    1  LIG1        0.1408
      2 C          -3.1287   -2.2085    0.2108 C.ar    1  LIG1       -0.0240
      3 C          -2.4613   -1.0902   -0.2476 C.ar    1  LIG1       -0.0363
      4 C          -3.1481    0.1257   -0.3878 C.ar    1  LIG1        0.0511
      5 C          -4.5064    0.1412    0.0082 C.ar    1  LIG1        0.0958
      6 N          -5.1505   -0.9462    0.4085 N.ar    1  LIG1       -0.2344
      7 H          -1.4155   -1.1451   -0.5214 H       1  LIG1        0.0637
      8 H          -2.6279   -3.1594    0.3273 H       1  LIG1        0.0646
      9 N          -5.7914   -4.2034    1.2838 N.1     1  LIG1       -0.1893
     10 C          -5.2358   -3.2582    0.9477 C.1     1  LIG1        0.1191
     11 N          -2.5333    1.2127   -0.9521 N.pl3   1  LIG1       -0.3563
     12 H          -1.5292    1.2632   -0.8683 H       1  LIG1        0.1424
     13 H          -2.9954    2.1063   -0.8835 H       1  LIG1        0.1424
     14 C          -4.9978    2.5682    0.6223 C.ar    1  LIG1        0.1500
     15 C          -5.3397    1.3829   -0.0450 C.ar    1  LIG1        0.0398
     16 C          -6.5389    1.3658   -0.7369 C.ar    1  LIG1       -0.0270
     17 C          -7.3602    2.5007   -0.7716 C.ar    1  LIG1        0.0517
     18 C          -6.9193    3.6315   -0.0362 C.ar    1  LIG1        0.0958
     19 N          -5.7670    3.6508    0.6123 N.ar    1  LIG1       -0.2337
     20 H          -6.8346    0.4625   -1.2558 H       1  LIG1        0.0644
     21 N          -2.7803    2.7122    1.9777 N.1     1  LIG1       -0.1893
     22 C          -3.7710    2.6584    1.4012 C.1     1  LIG1        0.1198
     23 N          -8.4877    2.5207   -1.5392 N.pl3   1  LIG1       -0.3563
     24 H          -9.1527    3.2660   -1.4041 H       1  LIG1        0.1424
     25 H          -8.8971    1.6325   -1.7859 H       1  LIG1        0.1424
     26 C          -9.0238    4.9624    0.4914 C.ar    1  LIG1        0.1493
     27 C          -7.7059    4.9028    0.0246 C.ar    1  LIG1        0.0398
     28 C          -7.0916    6.0954   -0.3370 C.ar    1  LIG1       -0.0276
     29 C          -7.8021    7.2953   -0.2512 C.ar    1  LIG1        0.0436
     30 C          -9.1365    7.2228    0.2081 C.ar    1  LIG1        0.0497
     31 N          -9.7174    6.0988    0.5702 N.ar    1  LIG1       -0.2421
     32 H          -6.0606    6.0807   -0.6674 H       1  LIG1        0.0644
     33 H          -9.7300    8.1268    0.2894 H       1  LIG1        0.0849
     34 N         -10.2227    2.7933    1.2850 N.1     1  LIG1       -0.1893
     35 C          -9.7023    3.7605    0.9529 C.1     1  LIG1        0.1198
     36 N          -7.2416    8.4984   -0.5679 N.pl3   1  LIG1       -0.3568
     37 H          -6.3532    8.5256   -1.0389 H       1  LIG1        0.1424
     38 H          -7.8299    9.3094   -0.6657 H       1  LIG1        0.1424
@<TRIPOS>BOND
     1    25    23    1
     2    23    24    1
     3    23    17    1
     4    20    16    1
     5    37    36    1
     6    11    13    1
     7    11    12    1
     8    11     4    1
     9    17    16   ar
    10    17    18   ar
    11    16    15   ar
    12    32    28    1
    13    38    36    1
    14    36    29    1
    15     7     3    1
    16     4     3   ar
    17     4     5   ar
    18    28    29   ar
    19    28    27   ar
    20    29    30   ar
    21     3     2   ar
    22    15     5    1
    23    15    14   ar
    24    18    27    1
    25    18    19   ar
    26     5     6   ar
    27    27    26   ar
    28    30    33    1
    29    30    31   ar
    30     2     8    1
    31     2     1   ar
    32     6     1   ar
    33    26    31   ar
    34    26    35    1
    35     1    10    1
    36    19    14   ar
    37    14    22    1
    38    10     9    3
    39    35    34    3
    40    22    21    3
