@<TRIPOS>MOLECULE
mol_data/opt/m06hf/geoms/mol2/6di13dd-12il-4he.out
 53 56 0 0 0
SMALL
GASTEIGER

@<TRIPOS>ATOM
      1 C          -4.6729   -2.0459    0.0477 C.ar    1  LIG1        0.1408
      2 C          -3.3677   -2.2576    0.4867 C.ar    1  LIG1       -0.0255
      3 C          -2.6242   -1.1369    0.8234 C.ar    1  LIG1       -0.0541
      4 C          -3.1594    0.1466    0.6946 C.ar    1  LIG1       -0.0229
      5 C          -4.4632    0.2273    0.1769 C.ar    1  LIG1        0.0928
      6 N          -5.2077   -0.8442   -0.1039 N.ar    1  LIG1       -0.2346
      7 H          -1.6197   -1.2520    1.2116 H       1  LIG1        0.0622
      8 H          -2.9770   -3.2606    0.5786 H       1  LIG1        0.0646
      9 N          -6.1587   -4.1120   -0.5052 N.1     1  LIG1       -0.1893
     10 C          -5.5216   -3.1892   -0.2684 C.1     1  LIG1        0.1191
     11 C          -2.3550    1.3429    1.1594 C.3     1  LIG1       -0.0376
     12 H          -3.0123    2.1494    1.4836 H       1  LIG1        0.0278
     13 H          -1.7201    1.7169    0.3560 H       1  LIG1        0.0278
     14 H          -1.7275    1.0418    1.9979 H       1  LIG1        0.0278
     15 C          -5.1907    1.4980   -0.0585 C.ar    1  LIG1        0.0846
     16 C          -4.8284    2.7500   -0.5248 C.ar    1  LIG1        0.0965
     17 C          -6.0205    3.5320   -0.6117 C.ar    1  LIG1        0.0980
     18 C          -7.0662    2.7280   -0.1912 C.ar    1  LIG1        0.1018
     19 N          -6.5367    1.5190    0.1216 N.ar    1  LIG1       -0.3485
     20 H          -7.0723    0.7010    0.3901 H       1  LIG1        0.1661
     21 N          -2.5060    3.4945   -1.3675 N.1     1  LIG1       -0.1908
     22 C          -3.5370    3.1646   -0.9850 C.1     1  LIG1        0.1027
     23 N          -6.1965    5.9174   -1.5766 N.1     1  LIG1       -0.1908
     24 C          -6.1196    4.8584   -1.1397 C.1     1  LIG1        0.1027
     25 C          -8.4959    2.9631   -0.0608 C.ar    1  LIG1        0.1596
     26 C          -9.2627    4.0641    0.1618 C.ar    1  LIG1        0.0391
     27 C         -10.6025    3.5464    0.2183 C.ar    1  LIG1        0.1692
     28 C         -10.5575    2.1911    0.0546 C.ar    1  LIG1        0.1792
     29 O          -9.2584    1.8418   -0.1202 O.2     1  LIG1       -0.4492
     30 C          -8.8935    5.5095    0.3684 C.3     1  LIG1       -0.0325
     31 H          -9.6961    5.9882    0.9285 H       1  LIG1        0.0280
     32 H          -8.7654    6.0201   -0.5860 H       1  LIG1        0.0280
     33 H          -7.9619    5.5913    0.9275 H       1  LIG1        0.0280
     34 O         -11.7089    4.3243    0.4105 O.3     1  LIG1       -0.4910
     35 C         -12.4311    4.5958   -0.7978 C.3     1  LIG1        0.0790
     36 H         -13.2761    5.2171   -0.5133 H       1  LIG1        0.0660
     37 H         -11.7841    5.1286   -1.4960 H       1  LIG1        0.0660
     38 H         -12.7751    3.6603   -1.2414 H       1  LIG1        0.0660
     39 C         -12.7464    1.1265    0.7347 C.ar    1  LIG1        0.0355
     40 C         -13.6074    0.0143    0.6270 C.ar    1  LIG1       -0.0392
     41 C         -11.5473    1.1056   -0.0132 C.ar    1  LIG1        0.0427
     42 C         -13.2907   -1.0692   -0.1648 C.ar    1  LIG1       -0.0446
     43 H         -14.5301    0.0168    1.1940 H       1  LIG1        0.0636
     44 C         -11.2420    0.0012   -0.8137 C.ar    1  LIG1       -0.0338
     45 C         -12.0958   -1.0919   -0.9004 C.ar    1  LIG1        0.0255
     46 H         -10.3162   -0.0010   -1.3737 H       1  LIG1        0.0637
     47 H         -13.9637   -1.9138   -0.2251 H       1  LIG1        0.0630
     48 N         -13.0634    2.1500    1.5846 N.pl3   1  LIG1       -0.3574
     49 H         -12.6396    3.0610    1.4604 H       1  LIG1        0.1423
     50 H         -13.9735    2.1306    2.0143 H       1  LIG1        0.1423
     51 C         -11.7575   -2.2238   -1.7277 C.1     1  LIG1       -0.0696
     52 C         -11.4695   -3.1680   -2.4136 C.1     1  LIG1       -0.1139
     53 H         -11.2047   -4.0058   -3.0157 H       1  LIG1        0.1232
@<TRIPOS>BOND
     1    53    52    1
     2    52    51    3
     3    51    45    1
     4    23    24    3
     5    37    35    1
     6    46    44    1
     7    21    22    3
     8    38    35    1
     9    24    17    1
    10    22    16    1
    11    45    44   ar
    12    45    42   ar
    13    44    41   ar
    14    35    36    1
    15    35    34    1
    16    17    16   ar
    17    17    18   ar
    18    32    30    1
    19    16    15   ar
    20     9    10    3
    21    10     1    1
    22    47    42    1
    23    18    25    1
    24    18    19   ar
    25    42    40   ar
    26    29    25   ar
    27    29    28   ar
    28     6     1   ar
    29     6     5   ar
    30    25    26   ar
    31    15    19   ar
    32    15     5    1
    33    41    28    1
    34    41    39   ar
    35     1     2   ar
    36    28    27   ar
    37    19    20    1
    38    26    27   ar
    39    26    30    1
    40     5     4   ar
    41    27    34    1
    42    13    11    1
    43    30    33    1
    44    30    31    1
    45     2     8    1
    46     2     3   ar
    47    40    39   ar
    48    40    43    1
    49     4     3   ar
    50     4    11    1
    51    39    48    1
    52     3     7    1
    53    11    12    1
    54    11    14    1
    55    49    48    1
    56    48    50    1
