@<TRIPOS>MOLECULE
mol_data/opt/m06hf/geoms/mol2/6di12he6ah13li.out
 52 55 0 0 0
SMALL
GASTEIGER

@<TRIPOS>ATOM
      1 C          -4.0958   -2.0623   -1.2181 C.ar    1  LIG1        0.1409
      2 C          -2.8957   -2.2731   -0.5433 C.ar    1  LIG1       -0.0255
      3 C          -2.4510   -1.2610    0.2965 C.ar    1  LIG1       -0.0540
      4 C          -3.1905   -0.0880    0.4377 C.ar    1  LIG1       -0.0213
      5 C          -4.3636    0.0199   -0.3351 C.ar    1  LIG1        0.1122
      6 N          -4.8123   -0.9500   -1.1313 N.ar    1  LIG1       -0.2329
      7 H          -1.5383   -1.3897    0.8652 H       1  LIG1        0.0622
      8 H          -2.3537   -3.1992   -0.6701 H       1  LIG1        0.0646
      9 N          -4.9745   -3.9542   -2.7803 N.1     1  LIG1       -0.1893
     10 C          -4.6097   -3.1094   -2.0965 C.1     1  LIG1        0.1191
     11 C          -2.7914    0.9810    1.4332 C.3     1  LIG1       -0.0376
     12 H          -3.6066    1.1281    2.1443 H       1  LIG1        0.0278
     13 H          -2.6063    1.9375    0.9401 H       1  LIG1        0.0278
     14 H          -1.8993    0.6662    1.9733 H       1  LIG1        0.0278
     15 C          -5.1914    1.2402   -0.2883 C.ar    1  LIG1        0.1758
     16 C          -4.8990    2.5605   -0.4500 C.ar    1  LIG1        0.0888
     17 C          -6.1588    3.2585   -0.3499 C.ar    1  LIG1        0.0917
     18 C          -7.1148    2.2953   -0.1503 C.ar    1  LIG1        0.1544
     19 O          -6.5345    1.0898   -0.1283 O.2     1  LIG1       -0.4501
     20 N          -3.6643    3.1692   -0.6752 N.pl3   1  LIG1       -0.3540
     21 H          -3.0883    2.6695   -1.3426 H       1  LIG1        0.1425
     22 H          -3.7658    4.1434   -0.9356 H       1  LIG1        0.1425
     23 C          -6.2965    4.6736   -0.4921 C.1     1  LIG1       -0.0640
     24 C          -6.3420    5.8684   -0.6285 C.1     1  LIG1       -0.1137
     25 H          -6.3922    6.9257   -0.7503 H       1  LIG1        0.1232
     26 C          -9.3025    1.1506    0.0393 C.ar    1  LIG1        0.0391
     27 C          -8.5679    2.3404    0.0338 C.ar    1  LIG1        0.0384
     28 C          -9.2410    3.5412    0.2228 C.ar    1  LIG1       -0.0267
     29 C         -10.6282    3.5493    0.4088 C.ar    1  LIG1        0.0531
     30 C         -11.2857    2.2960    0.3500 C.ar    1  LIG1        0.1112
     31 N         -10.6163    1.1520    0.1923 N.ar    1  LIG1       -0.2508
     32 H          -8.6935    4.4752    0.2540 H       1  LIG1        0.0644
     33 H          -8.8128    0.1943   -0.0875 H       1  LIG1        0.0837
     34 N         -11.2899    4.7108    0.6886 N.pl3   1  LIG1       -0.3563
     35 H         -10.7810    5.5754    0.6218 H       1  LIG1        0.1424
     36 H         -12.3031    4.7488    0.6437 H       1  LIG1        0.1424
     37 C         -12.7411    2.1193    0.5244 C.ar    1  LIG1        0.1092
     38 C         -13.8771    2.9059    0.4024 C.ar    1  LIG1        0.1497
     39 C         -15.0201    2.1170    0.6940 C.ar    1  LIG1        0.0092
     40 C         -14.5393    0.8582    0.9807 C.ar    1  LIG1        0.0087
     41 N         -13.1867    0.8767    0.8716 N.ar    1  LIG1       -0.3562
     42 H         -12.5379    0.1081    0.9668 H       1  LIG1        0.1655
     43 H         -15.0695   -0.0372    1.2572 H       1  LIG1        0.0811
     44 O         -13.9420    4.2284    0.0232 O.3     1  LIG1       -0.4927
     45 C         -13.8841    4.4016   -1.3943 C.3     1  LIG1        0.0789
     46 H         -14.6862    3.8325   -1.8661 H       1  LIG1        0.0660
     47 H         -14.0125    5.4656   -1.5816 H       1  LIG1        0.0660
     48 H         -12.9180    4.0616   -1.7727 H       1  LIG1        0.0660
     49 C         -16.4482    2.5998    0.6849 C.3     1  LIG1       -0.0348
     50 H         -17.1054    1.8336    1.0951 H       1  LIG1        0.0279
     51 H         -16.7797    2.8301   -0.3296 H       1  LIG1        0.0279
     52 H         -16.5430    3.5042    1.2860 H       1  LIG1        0.0279
@<TRIPOS>BOND
     1     9    10    3
     2    10     1    1
     3    46    45    1
     4    48    45    1
     5    47    45    1
     6    45    44    1
     7    21    20    1
     8     1     6   ar
     9     1     2   ar
    10     6     5   ar
    11    22    20    1
    12    25    24    1
    13    20    16    1
    14     8     2    1
    15    24    23    3
    16     2     3   ar
    17    23    17    1
    18    16    17   ar
    19    16    15   ar
    20    17    18   ar
    21     5    15    1
    22     5     4   ar
    23    51    49    1
    24    15    19   ar
    25    18    19   ar
    26    18    27    1
    27    33    26    1
    28    44    38    1
    29    27    26   ar
    30    27    28   ar
    31    26    31   ar
    32    31    30   ar
    33    28    32    1
    34    28    29   ar
    35     3     4   ar
    36     3     7    1
    37    30    29   ar
    38    30    37    1
    39    38    37   ar
    40    38    39   ar
    41    29    34    1
    42     4    11    1
    43    37    41   ar
    44    35    34    1
    45    36    34    1
    46    49    39    1
    47    49    50    1
    48    49    52    1
    49    39    40   ar
    50    41    42    1
    51    41    40   ar
    52    13    11    1
    53    40    43    1
    54    11    14    1
    55    11    12    1
