@<TRIPOS>MOLECULE
mol_data/opt/m06hf/geoms/mol2/6di13fh-12eh6aa-.out
 46 49 0 0 0
SMALL
GASTEIGER

@<TRIPOS>ATOM
      1 C          -4.5839   -2.0321    0.1127 C.ar    1  LIG1        0.1408
      2 C          -3.2191   -2.1946    0.3103 C.ar    1  LIG1       -0.0255
      3 C          -2.4558   -1.0352    0.3909 C.ar    1  LIG1       -0.0541
      4 C          -3.0399    0.2203    0.2593 C.ar    1  LIG1       -0.0228
      5 C          -4.4293    0.2550    0.0131 C.ar    1  LIG1        0.0951
      6 N          -5.1733   -0.8529   -0.0327 N.ar    1  LIG1       -0.2345
      7 H          -1.3914   -1.1034    0.5784 H       1  LIG1        0.0622
      8 H          -2.7915   -3.1812    0.4133 H       1  LIG1        0.0646
      9 N          -6.0939   -4.1537    0.0178 N.1     1  LIG1       -0.1893
     10 C          -5.4474   -3.2078    0.0564 C.1     1  LIG1        0.1191
     11 C          -2.2083    1.4725    0.4264 C.3     1  LIG1       -0.0376
     12 H          -2.7313    2.1856    1.0644 H       1  LIG1        0.0278
     13 H          -2.0409    1.9569   -0.5343 H       1  LIG1        0.0278
     14 H          -1.2524    1.2134    0.8799 H       1  LIG1        0.0278
     15 C          -5.2184    1.4877   -0.1594 C.ar    1  LIG1        0.1096
     16 C          -4.9750    2.8034   -0.5321 C.ar    1  LIG1        0.1651
     17 C          -6.2084    3.4907   -0.5648 C.ar    1  LIG1        0.0960
     18 C          -7.1892    2.5729   -0.2147 C.ar    1  LIG1        0.1085
     19 N          -6.5767    1.3890    0.0127 N.ar    1  LIG1       -0.3461
     20 H          -7.0257    0.5088    0.2307 H       1  LIG1        0.1662
     21 O          -3.8222    3.4179   -0.8870 O.3     1  LIG1       -0.5030
     22 H          -4.0909    4.3230   -1.1225 H       1  LIG1        0.2923
     23 N          -6.2526    4.8501   -0.9806 N.pl3   1  LIG1       -0.3534
     24 H          -6.8063    4.9620   -1.8258 H       1  LIG1        0.1425
     25 H          -6.6548    5.4483   -0.2654 H       1  LIG1        0.1425
     26 C          -8.6290    2.7152   -0.1080 C.ar    1  LIG1        0.1708
     27 C          -9.4494    3.7818    0.1462 C.ar    1  LIG1        0.0931
     28 C         -10.7985    3.2645    0.1120 C.ar    1  LIG1        0.0873
     29 C         -10.6854    1.9300   -0.1345 C.ar    1  LIG1        0.1590
     30 O          -9.3668    1.6084   -0.2835 O.2     1  LIG1       -0.4501
     31 C          -9.1146    5.1364    0.4550 C.1     1  LIG1       -0.0639
     32 C          -8.9164    6.2915    0.7326 C.1     1  LIG1       -0.1137
     33 H          -8.7390    7.3097    0.9958 H       1  LIG1        0.1232
     34 N         -11.9614    4.0126    0.3240 N.pl3   1  LIG1       -0.3541
     35 H         -11.7569    4.9997    0.4316 H       1  LIG1        0.1425
     36 H         -12.6604    3.8675   -0.3968 H       1  LIG1        0.1425
     37 C         -11.3740   -0.3198   -0.9479 C.ar    1  LIG1        0.0383
     38 C         -11.6792    0.8655   -0.2685 C.ar    1  LIG1        0.0372
     39 C         -12.9556    1.0005    0.2836 C.ar    1  LIG1       -0.0481
     40 C         -13.8628   -0.0370    0.1165 C.ar    1  LIG1       -0.0429
     41 C         -13.4604   -1.1707   -0.5855 C.ar    1  LIG1        0.0276
     42 N         -12.2408   -1.3134   -1.1024 N.ar    1  LIG1       -0.2626
     43 H         -13.2102    1.8923    0.8439 H       1  LIG1        0.0626
     44 H         -14.1424   -1.9985   -0.7349 H       1  LIG1        0.0829
     45 H         -10.3894   -0.4585   -1.3785 H       1  LIG1        0.0837
     46 H         -14.8601    0.0223    0.5297 H       1  LIG1        0.0633
@<TRIPOS>BOND
     1    24    23    1
     2    45    37    1
     3    22    21    1
     4    42    37   ar
     5    42    41   ar
     6    23    17    1
     7    23    25    1
     8    37    38   ar
     9    21    16    1
    10    44    41    1
    11    41    40   ar
    12    17    16   ar
    13    17    18   ar
    14    13    11    1
    15    16    15   ar
    16    36    34    1
    17    30    29   ar
    18    30    26   ar
    19    38    29    1
    20    38    39   ar
    21    18    26    1
    22    18    19   ar
    23    15    19   ar
    24    15     5    1
    25    29    28   ar
    26    26    27   ar
    27     6     5   ar
    28     6     1   ar
    29    19    20    1
    30     5     4   ar
    31     9    10    3
    32    10     1    1
    33    28    27   ar
    34    28    34    1
    35     1     2   ar
    36    40    39   ar
    37    40    46    1
    38    27    31    1
    39     4     3   ar
    40     4    11    1
    41    39    43    1
    42     2     3   ar
    43     2     8    1
    44    34    35    1
    45     3     7    1
    46    11    14    1
    47    11    12    1
    48    31    32    3
    49    32    33    1
