@<TRIPOS>MOLECULE
mol_data/opt/m06hf/geoms/mol2/6di6di6di-6di-.out
 54 57 0 0 0
SMALL
GASTEIGER

@<TRIPOS>ATOM
      1 C          -4.3389   -1.9694   -1.2773 C.ar    1  LIG1        0.1407
      2 C          -3.1240   -2.2504   -0.6563 C.ar    1  LIG1       -0.0255
      3 C          -2.5949   -1.2796    0.1819 C.ar    1  LIG1       -0.0541
      4 C          -3.2659   -0.0718    0.3716 C.ar    1  LIG1       -0.0243
      5 C          -4.4733    0.0950   -0.3247 C.ar    1  LIG1        0.0781
      6 N          -5.0008   -0.8312   -1.1199 N.ar    1  LIG1       -0.2360
      7 H          -1.6624   -1.4615    0.7020 H       1  LIG1        0.0622
      8 H          -2.6331   -3.1982   -0.8240 H       1  LIG1        0.0646
      9 N          -5.3589   -3.7721   -2.8564 N.1     1  LIG1       -0.1893
     10 C          -4.9343   -2.9643   -2.1625 C.1     1  LIG1        0.1191
     11 C          -2.7103    0.9826    1.3099 C.3     1  LIG1       -0.0377
     12 H          -3.5161    1.5311    1.7960 H       1  LIG1        0.0278
     13 H          -2.0863    1.6924    0.7635 H       1  LIG1        0.0278
     14 H          -2.0968    0.5051    2.0728 H       1  LIG1        0.0278
     15 C          -6.5984    1.3135    0.2606 C.ar    1  LIG1        0.1499
     16 C          -5.2816    1.3490   -0.2100 C.ar    1  LIG1        0.0368
     17 C          -4.7832    2.5928   -0.5743 C.ar    1  LIG1       -0.0449
     18 C          -5.5759    3.7390   -0.4994 C.ar    1  LIG1       -0.0237
     19 C          -6.8971    3.5577   -0.0618 C.ar    1  LIG1        0.0781
     20 N          -7.3784    2.3801    0.3356 N.ar    1  LIG1       -0.2353
     21 H          -3.7628    2.6756   -0.9319 H       1  LIG1        0.0628
     22 N          -7.6027   -0.9158    1.1595 N.1     1  LIG1       -0.1893
     23 C          -7.1695    0.0610    0.7457 C.1     1  LIG1        0.1198
     24 C          -4.9756    5.0868   -0.8485 C.3     1  LIG1       -0.0377
     25 H          -5.5627    5.9000   -0.4236 H       1  LIG1        0.0278
     26 H          -4.9375    5.2093   -1.9315 H       1  LIG1        0.0278
     27 H          -3.9633    5.1413   -0.4480 H       1  LIG1        0.0278
     28 C          -8.2303    5.5048   -1.0206 C.ar    1  LIG1        0.1499
     29 C          -7.8827    4.6772    0.0492 C.ar    1  LIG1        0.0368
     30 C          -8.5787    4.8738    1.2382 C.ar    1  LIG1       -0.0449
     31 C          -9.5197    5.8917    1.3618 C.ar    1  LIG1       -0.0237
     32 C          -9.7229    6.7020    0.2288 C.ar    1  LIG1        0.0781
     33 N          -9.1189    6.4860   -0.9363 N.ar    1  LIG1       -0.2353
     34 H          -8.3894    4.2034    2.0685 H       1  LIG1        0.0628
     35 N          -7.1734    5.0957   -3.3671 N.1     1  LIG1       -0.1893
     36 C          -7.6451    5.2862   -2.3391 C.1     1  LIG1        0.1198
     37 C         -10.2928    6.0500    2.6558 C.3     1  LIG1       -0.0377
     38 H         -10.4973    5.0638    3.0723 H       1  LIG1        0.0278
     39 H         -11.2383    6.5632    2.4846 H       1  LIG1        0.0278
     40 H          -9.7064    6.6261    3.3725 H       1  LIG1        0.0278
     41 C         -10.6219    8.9220    1.0896 C.ar    1  LIG1        0.1492
     42 C         -10.6951    7.8391    0.2096 C.ar    1  LIG1        0.0367
     43 C         -11.6997    7.8763   -0.7549 C.ar    1  LIG1       -0.0455
     44 C         -12.5997    8.9364   -0.7858 C.ar    1  LIG1       -0.0316
     45 C         -12.4345    9.9415    0.1733 C.ar    1  LIG1        0.0320
     46 N         -11.4671    9.9471    1.0815 N.ar    1  LIG1       -0.2437
     47 H         -11.7629    7.0707   -1.4776 H       1  LIG1        0.0628
     48 H         -13.1128   10.7866    0.1976 H       1  LIG1        0.0832
     49 N          -8.6821    9.0239    2.8281 N.1     1  LIG1       -0.1893
     50 C          -9.5405    8.9910    2.0683 C.1     1  LIG1        0.1198
     51 C         -13.7072    9.0046   -1.8166 C.3     1  LIG1       -0.0383
     52 H         -14.3152    8.1006   -1.7744 H       1  LIG1        0.0278
     53 H         -13.2803    9.0895   -2.8166 H       1  LIG1        0.0278
     54 H         -14.3469    9.8670   -1.6336 H       1  LIG1        0.0278
@<TRIPOS>BOND
     1    35    36    3
     2     9    10    3
     3    53    51    1
     4    36    28    1
     5    10     1    1
     6    26    24    1
     7    51    52    1
     8    51    54    1
     9    51    44    1
    10    47    43    1
    11     1     6   ar
    12     1     2   ar
    13     6     5   ar
    14    28    33   ar
    15    28    29   ar
    16    33    32   ar
    17    21    17    1
    18    24    18    1
    19    24    27    1
    20    24    25    1
    21     8     2    1
    22    44    43   ar
    23    44    45   ar
    24    43    42   ar
    25     2     3   ar
    26    17    18   ar
    27    17    16   ar
    28    18    19   ar
    29     5    16    1
    30     5     4   ar
    31    16    15   ar
    32    19    29    1
    33    19    20   ar
    34    29    30   ar
    35    45    48    1
    36    45    46   ar
    37     3     4   ar
    38     3     7    1
    39    42    32    1
    40    42    41   ar
    41    32    31   ar
    42    15    20   ar
    43    15    23    1
    44     4    11    1
    45    23    22    3
    46    13    11    1
    47    46    41   ar
    48    41    50    1
    49    30    31   ar
    50    30    34    1
    51    11    12    1
    52    11    14    1
    53    31    37    1
    54    50    49    3
    55    39    37    1
    56    37    38    1
    57    37    40    1
