@<TRIPOS>MOLECULE
mol_data/opt/m06hf/geoms/mol2/6di6di-6di6di-.out
 54 57 0 0 0
SMALL
GASTEIGER

@<TRIPOS>ATOM
      1 C          -4.3703   -2.0958   -0.9168 C.ar    1  LIG1        0.1407
      2 C          -3.0504   -2.2586   -0.5005 C.ar    1  LIG1       -0.0255
      3 C          -2.4371   -1.1715    0.1015 C.ar    1  LIG1       -0.0541
      4 C          -3.1211    0.0363    0.2547 C.ar    1  LIG1       -0.0243
      5 C          -4.4294    0.0872   -0.2537 C.ar    1  LIG1        0.0781
      6 N          -5.0449   -0.9615   -0.7988 N.ar    1  LIG1       -0.2360
      7 H          -1.4223   -1.2562    0.4710 H       1  LIG1        0.0622
      8 H          -2.5482   -3.2062   -0.6345 H       1  LIG1        0.0646
      9 N          -5.6063   -4.1340   -1.9670 N.1     1  LIG1       -0.1893
     10 C          -5.0799   -3.2236   -1.5113 C.1     1  LIG1        0.1191
     11 C          -2.4499    1.1835    0.9847 C.3     1  LIG1       -0.0377
     12 H          -3.1790    1.9234    1.3124 H       1  LIG1        0.0278
     13 H          -1.7268    1.6710    0.3301 H       1  LIG1        0.0278
     14 H          -1.9322    0.7915    1.8605 H       1  LIG1        0.0278
     15 C          -4.9091    2.5508   -0.7135 C.ar    1  LIG1        0.1499
     16 C          -5.2855    1.3134   -0.1840 C.ar    1  LIG1        0.0368
     17 C          -6.5502    1.2439    0.3903 C.ar    1  LIG1       -0.0449
     18 C          -7.3774    2.3628    0.4541 C.ar    1  LIG1       -0.0237
     19 C          -6.8816    3.5453   -0.1236 C.ar    1  LIG1        0.0781
     20 N          -5.6751    3.6325   -0.6781 N.ar    1  LIG1       -0.2353
     21 H          -6.8846    0.2980    0.8005 H       1  LIG1        0.0628
     22 N          -2.6019    2.8015   -1.8983 N.1     1  LIG1       -0.1893
     23 C          -3.6208    2.7031   -1.3817 C.1     1  LIG1        0.1198
     24 C          -8.7136    2.2581    1.1633 C.3     1  LIG1       -0.0377
     25 H          -8.5875    1.6693    2.0717 H       1  LIG1        0.0278
     26 H          -9.4394    1.7648    0.5161 H       1  LIG1        0.0278
     27 H          -9.0949    3.2419    1.4334 H       1  LIG1        0.0278
     28 C          -8.9226    4.9759   -0.6712 C.ar    1  LIG1        0.1499
     29 C          -7.6433    4.8340   -0.1286 C.ar    1  LIG1        0.0368
     30 C          -7.0613    5.9840    0.3949 C.ar    1  LIG1       -0.0449
     31 C          -7.7390    7.2008    0.3985 C.ar    1  LIG1       -0.0237
     32 C          -9.0191    7.2095   -0.1851 C.ar    1  LIG1        0.0781
     33 N          -9.5920    6.1204   -0.6918 N.ar    1  LIG1       -0.2353
     34 H          -6.0642    5.9188    0.8147 H       1  LIG1        0.0628
     35 N         -10.1103    2.9357   -1.7739 N.1     1  LIG1       -0.1893
     36 C          -9.5930    3.8387   -1.2924 C.1     1  LIG1        0.1198
     37 C          -7.0965    8.4092    1.0506 C.3     1  LIG1       -0.0377
     38 H          -7.8417    9.1623    1.3030 H       1  LIG1        0.0278
     39 H          -6.3657    8.8514    0.3728 H       1  LIG1        0.0278
     40 H          -6.5918    8.0947    1.9639 H       1  LIG1        0.0278
     41 C          -9.4837    9.6249   -0.8604 C.ar    1  LIG1        0.1492
     42 C          -9.8817    8.4309   -0.2527 C.ar    1  LIG1        0.0367
     43 C         -11.1809    8.3825    0.2481 C.ar    1  LIG1       -0.0455
     44 C         -12.0043    9.5005    0.1713 C.ar    1  LIG1       -0.0316
     45 C         -11.4707   10.6441   -0.4324 C.ar    1  LIG1        0.0320
     46 N         -10.2491   10.7078   -0.9460 N.ar    1  LIG1       -0.2437
     47 H         -11.5389    7.4587    0.6881 H       1  LIG1        0.0628
     48 H         -12.0676   11.5451   -0.5158 H       1  LIG1        0.0832
     49 N          -7.1375    9.7816   -1.9842 N.1     1  LIG1       -0.1893
     50 C          -8.1718    9.7225   -1.4924 C.1     1  LIG1        0.1198
     51 C         -13.4193    9.4787    0.7103 C.3     1  LIG1       -0.0383
     52 H         -13.4117    9.2551    1.7777 H       1  LIG1        0.0278
     53 H         -14.0001    8.7100    0.1995 H       1  LIG1        0.0278
     54 H         -13.9018   10.4428    0.5568 H       1  LIG1        0.0278
@<TRIPOS>BOND
     1    49    50    3
     2     9    10    3
     3    22    23    3
     4    35    36    3
     5    10     1    1
     6    50    41    1
     7    23    15    1
     8    36    28    1
     9    46    41   ar
    10    46    45   ar
    11     1     6   ar
    12     1     2   ar
    13    41    42   ar
    14     6     5   ar
    15    15    20   ar
    16    15    16   ar
    17    33    28   ar
    18    33    32   ar
    19    20    19   ar
    20    28    29   ar
    21     8     2    1
    22    48    45    1
    23     2     3   ar
    24    45    44   ar
    25     5    16    1
    26     5     4   ar
    27    42    32    1
    28    42    43   ar
    29    32    31   ar
    30    16    17   ar
    31    29    19    1
    32    29    30   ar
    33    19    18   ar
    34     3     4   ar
    35     3     7    1
    36    44    43   ar
    37    44    51    1
    38    53    51    1
    39    43    47    1
    40     4    11    1
    41    13    11    1
    42    39    37    1
    43    17    18   ar
    44    17    21    1
    45    30    31   ar
    46    30    34    1
    47    31    37    1
    48    18    24    1
    49    26    24    1
    50    54    51    1
    51    51    52    1
    52    11    12    1
    53    11    14    1
    54    37    38    1
    55    37    40    1
    56    24    27    1
    57    24    25    1
