@<TRIPOS>MOLECULE
mol_data/opt/m06hf/geoms/mol2/6di6hi6dl-6hd.out
 55 58 0 0 0
SMALL
GASTEIGER

@<TRIPOS>ATOM
      1 C          -3.7572   -1.7544   -1.5739 C.ar    1  LIG1        0.1407
      2 C          -2.8797   -2.2053   -0.5946 C.ar    1  LIG1       -0.0255
      3 C          -2.8285   -1.4767    0.5860 C.ar    1  LIG1       -0.0541
      4 C          -3.6058   -0.3319    0.7521 C.ar    1  LIG1       -0.0243
      5 C          -4.4181    0.0591   -0.3328 C.ar    1  LIG1        0.0786
      6 N          -4.5021   -0.6627   -1.4517 N.ar    1  LIG1       -0.2360
      7 H          -2.1919   -1.8084    1.3974 H       1  LIG1        0.0622
      8 H          -2.2920   -3.0982   -0.7527 H       1  LIG1        0.0646
      9 N          -3.9997   -3.1116   -3.7843 N.1     1  LIG1       -0.1893
     10 C          -3.9013   -2.5034   -2.8177 C.1     1  LIG1        0.1191
     11 C          -3.5864    0.3965    2.0836 C.3     1  LIG1       -0.0377
     12 H          -4.5389    0.8924    2.2641 H       1  LIG1        0.0278
     13 H          -2.7901    1.1431    2.1083 H       1  LIG1        0.0278
     14 H          -3.4018   -0.3230    2.8808 H       1  LIG1        0.0278
     15 C          -6.6157    1.2825   -0.7030 C.ar    1  LIG1        0.1261
     16 C          -5.2533    1.2941   -0.2936 C.ar    1  LIG1        0.0404
     17 C          -4.7325    2.4978    0.1469 C.ar    1  LIG1       -0.0443
     18 C          -5.5103    3.6562    0.2431 C.ar    1  LIG1       -0.0236
     19 C          -6.8450    3.5054   -0.1351 C.ar    1  LIG1        0.0788
     20 N          -7.3720    2.3732   -0.5936 N.ar    1  LIG1       -0.2314
     21 H          -3.6869    2.5438    0.4321 H       1  LIG1        0.0628
     22 N          -7.2173    0.1634   -1.1801 N.pl3   1  LIG1       -0.3426
     23 H          -8.1645    0.2886   -1.5025 H       1  LIG1        0.1437
     24 H          -6.6372   -0.5254   -1.6348 H       1  LIG1        0.1437
     25 C          -4.9137    4.9476    0.7736 C.3     1  LIG1       -0.0377
     26 H          -5.6549    5.5218    1.3292 H       1  LIG1        0.0278
     27 H          -4.5259    5.5712   -0.0358 H       1  LIG1        0.0278
     28 H          -4.0851    4.7167    1.4435 H       1  LIG1        0.0278
     29 C          -9.0210    4.5182    0.6249 C.ar    1  LIG1        0.1501
     30 C          -7.8149    4.6414   -0.0532 C.ar    1  LIG1        0.0400
     31 C          -7.5628    5.8686   -0.6674 C.ar    1  LIG1       -0.0059
     32 C          -8.4936    6.8950   -0.5878 C.ar    1  LIG1        0.1468
     33 C          -9.7169    6.6648    0.1017 C.ar    1  LIG1        0.1173
     34 N          -9.9235    5.4956    0.6917 N.ar    1  LIG1       -0.2319
     35 H          -6.6390    5.9983   -1.2130 H       1  LIG1        0.0662
     36 N          -9.6463    2.3817    1.9735 N.1     1  LIG1       -0.1893
     37 C          -9.3598    3.3045    1.3568 C.1     1  LIG1        0.1198
     38 O          -8.2922    8.1126   -1.1233 O.3     1  LIG1       -0.4929
     39 C          -7.0143    8.4184   -1.6643 C.3     1  LIG1        0.0789
     40 H          -7.0580    9.4686   -1.9356 H       1  LIG1        0.0660
     41 H          -6.2383    8.2569   -0.9125 H       1  LIG1        0.0660
     42 H          -6.8176    7.8125   -2.5512 H       1  LIG1        0.0660
     43 C         -11.6611    7.7385    1.3551 C.ar    1  LIG1        0.1256
     44 C         -10.7765    7.7013    0.2281 C.ar    1  LIG1        0.0447
     45 C         -10.9606    8.6723   -0.7446 C.ar    1  LIG1       -0.0303
     46 C         -11.9296    9.6624   -0.5813 C.ar    1  LIG1        0.0706
     47 C         -12.6897    9.6519    0.5897 C.ar    1  LIG1        0.0471
     48 N         -12.5632    8.7241    1.5155 N.ar    1  LIG1       -0.2388
     49 H         -10.3492    8.6718   -1.6339 H       1  LIG1        0.0638
     50 H         -13.4305   10.4228    0.7666 H       1  LIG1        0.0843
     51 N         -11.6390    6.8205    2.3347 N.pl3   1  LIG1       -0.3426
     52 H         -12.3317    6.9268    3.0587 H       1  LIG1        0.1437
     53 H         -11.1709    5.9396    2.1774 H       1  LIG1        0.1437
     54 N         -12.2721   11.4927   -2.3802 N.1     1  LIG1       -0.1908
     55 C         -12.1245   10.6814   -1.5812 C.1     1  LIG1        0.1007
@<TRIPOS>BOND
     1     9    10    3
     2    10     1    1
     3    42    39    1
     4    54    55    3
     5    40    39    1
     6    39    38    1
     7    39    41    1
     8    24    22    1
     9    49    45    1
    10    55    46    1
    11     1     6   ar
    12     1     2   ar
    13    23    22    1
    14     6     5   ar
    15    35    31    1
    16    22    15    1
    17    38    32    1
    18     8     2    1
    19    45    46   ar
    20    45    44   ar
    21    15    20   ar
    22    15    16   ar
    23    31    32   ar
    24    31    30   ar
    25     2     3   ar
    26    20    19   ar
    27    32    33   ar
    28    46    47   ar
    29     5    16    1
    30     5     4   ar
    31    16    17   ar
    32    19    30    1
    33    19    18   ar
    34    30    29   ar
    35    27    25    1
    36    33    44    1
    37    33    34   ar
    38    17    18   ar
    39    17    21    1
    40    44    43   ar
    41    18    25    1
    42     3     4   ar
    43     3     7    1
    44    47    50    1
    45    47    48   ar
    46    29    34   ar
    47    29    37    1
    48     4    11    1
    49    25    26    1
    50    25    28    1
    51    43    48   ar
    52    43    51    1
    53    37    36    3
    54    11    13    1
    55    11    12    1
    56    11    14    1
    57    53    51    1
    58    51    52    1
