@<TRIPOS>MOLECULE
mol_data/opt/m06hf/geoms/mol2/6di6di-6di-6di-.out
 54 57 0 0 0
SMALL
GASTEIGER

@<TRIPOS>ATOM
      1 C          -4.0514   -1.9855    0.6624 C.ar    1  LIG1        0.1407
      2 C          -3.0213   -2.2283   -0.2432 C.ar    1  LIG1       -0.0255
      3 C          -2.7013   -1.2099   -1.1277 C.ar    1  LIG1       -0.0541
      4 C          -3.4091   -0.0066   -1.1135 C.ar    1  LIG1       -0.0243
      5 C          -4.4564    0.0951   -0.1825 C.ar    1  LIG1        0.0781
      6 N          -4.7504   -0.8598    0.6984 N.ar    1  LIG1       -0.2360
      7 H          -1.8873   -1.3373   -1.8310 H       1  LIG1        0.0622
      8 H          -2.4928   -3.1709   -0.2302 H       1  LIG1        0.0646
      9 N          -4.6530   -3.8228    2.4081 N.1     1  LIG1       -0.1893
     10 C          -4.4028   -3.0043    1.6456 C.1     1  LIG1        0.1191
     11 C          -2.9979    1.1176   -2.0440 C.3     1  LIG1       -0.0377
     12 H          -3.3412    2.0822   -1.6721 H       1  LIG1        0.0278
     13 H          -3.4160    0.9536   -3.0379 H       1  LIG1        0.0278
     14 H          -1.9105    1.1396   -2.1162 H       1  LIG1        0.0278
     15 C          -6.0635    1.8416   -1.1093 C.ar    1  LIG1        0.1499
     16 C          -5.3138    1.3152   -0.0550 C.ar    1  LIG1        0.0368
     17 C          -5.4644    1.9326    1.1831 C.ar    1  LIG1       -0.0449
     18 C          -6.2721    3.0566    1.3341 C.ar    1  LIG1       -0.0237
     19 C          -6.9150    3.5278    0.1754 C.ar    1  LIG1        0.0781
     20 N          -6.8381    2.9132   -1.0015 N.ar    1  LIG1       -0.2353
     21 H          -4.9531    1.5108    2.0405 H       1  LIG1        0.0628
     22 N          -6.0537    0.6619   -3.4327 N.1     1  LIG1       -0.1893
     23 C          -6.0631    1.1871   -2.4134 C.1     1  LIG1        0.1198
     24 C          -6.4527    3.6757    2.7063 C.3     1  LIG1       -0.0377
     25 H          -6.4716    2.8830    3.4537 H       1  LIG1        0.0278
     26 H          -7.3861    4.2343    2.7643 H       1  LIG1        0.0278
     27 H          -5.6235    4.3501    2.9245 H       1  LIG1        0.0278
     28 C          -7.3644    6.0005    0.5719 C.ar    1  LIG1        0.1499
     29 C          -7.7997    4.7338    0.1754 C.ar    1  LIG1        0.0368
     30 C          -9.0993    4.6483   -0.3125 C.ar    1  LIG1       -0.0449
     31 C          -9.9347    5.7624   -0.3326 C.ar    1  LIG1       -0.0237
     32 C          -9.3982    6.9614    0.1702 C.ar    1  LIG1        0.0781
     33 N          -8.1351    7.0793    0.5731 N.ar    1  LIG1       -0.2353
     34 H          -9.4505    3.6971   -0.6952 H       1  LIG1        0.0628
     35 N          -4.8767    6.3329    1.2737 N.1     1  LIG1       -0.1893
     36 C          -5.9752    6.2026    0.9708 C.1     1  LIG1        0.1198
     37 C         -11.3268    5.6416   -0.9205 C.3     1  LIG1       -0.0377
     38 H         -11.2857    4.9971   -1.7984 H       1  LIG1        0.0278
     39 H         -11.7131    6.6156   -1.2176 H       1  LIG1        0.0278
     40 H         -12.0046    5.2025   -0.1874 H       1  LIG1        0.0278
     41 C         -11.3836    8.3529    0.9410 C.ar    1  LIG1        0.1492
     42 C         -10.1804    8.2350    0.2400 C.ar    1  LIG1        0.0367
     43 C          -9.6850    9.3902   -0.3607 C.ar    1  LIG1       -0.0455
     44 C         -10.4009   10.5804   -0.2838 C.ar    1  LIG1       -0.0316
     45 C         -11.6082   10.5545    0.4225 C.ar    1  LIG1        0.0320
     46 N         -12.0870    9.4766    1.0302 N.ar    1  LIG1       -0.2437
     47 H          -8.7356    9.3455   -0.8819 H       1  LIG1        0.0628
     48 H         -12.2085   11.4531    0.5089 H       1  LIG1        0.0832
     49 N         -12.3229    6.2931    2.2325 N.1     1  LIG1       -0.1893
     50 C         -11.9188    7.2062    1.6681 C.1     1  LIG1        0.1198
     51 C          -9.8892   11.8544   -0.9231 C.3     1  LIG1       -0.0383
     52 H          -9.6513   11.6803   -1.9728 H       1  LIG1        0.0278
     53 H          -8.9845   12.1880   -0.4133 H       1  LIG1        0.0278
     54 H         -10.6385   12.6421   -0.8587 H       1  LIG1        0.0278
@<TRIPOS>BOND
     1    22    23    3
     2    13    11    1
     3    23    15    1
     4    14    11    1
     5    11    12    1
     6    11     4    1
     7    52    51    1
     8     7     3    1
     9    38    37    1
    10    39    37    1
    11     3     4   ar
    12     3     2   ar
    13     4     5   ar
    14    15    20   ar
    15    15    16   ar
    16    20    19   ar
    17    51    54    1
    18    51    53    1
    19    51    44    1
    20    37    31    1
    21    37    40    1
    22    47    43    1
    23    34    30    1
    24    43    44   ar
    25    43    42   ar
    26    31    30   ar
    27    31    32   ar
    28    30    29   ar
    29    44    45   ar
    30     2     8    1
    31     2     1   ar
    32     5    16    1
    33     5     6   ar
    34    16    17   ar
    35    32    42    1
    36    32    33   ar
    37    29    19    1
    38    29    28   ar
    39    19    18   ar
    40    42    41   ar
    41    45    48    1
    42    45    46   ar
    43    28    33   ar
    44    28    36    1
    45     1     6   ar
    46     1    10    1
    47    41    46   ar
    48    41    50    1
    49    36    35    3
    50    17    18   ar
    51    17    21    1
    52    18    24    1
    53    10     9    3
    54    50    49    3
    55    24    26    1
    56    24    27    1
    57    24    25    1
