@<TRIPOS>MOLECULE
mol_data/opt/m06hf/geoms/mol2/6di6di6di6di-.out
 54 57 0 0 0
SMALL
GASTEIGER

@<TRIPOS>ATOM
      1 C          -1.8809   -0.1793   -0.5182 C.ar    1  LIG1        0.1407
      2 C          -2.1361   -1.5463   -0.4325 C.ar    1  LIG1       -0.0255
      3 C          -3.4488   -1.9339   -0.2130 C.ar    1  LIG1       -0.0541
      4 C          -4.4638   -0.9812   -0.1068 C.ar    1  LIG1       -0.0243
      5 C          -4.0820    0.3627   -0.2572 C.ar    1  LIG1        0.0781
      6 N          -2.8199    0.7520   -0.4319 N.ar    1  LIG1       -0.2360
      7 H          -3.6942   -2.9838   -0.1089 H       1  LIG1        0.0622
      8 H          -1.3290   -2.2595   -0.5200 H       1  LIG1        0.0646
      9 N           0.5753    0.6205   -0.8560 N.1     1  LIG1       -0.1893
     10 C          -0.5115    0.2873   -0.7094 C.1     1  LIG1        0.1191
     11 C          -5.8795   -1.4285    0.2028 C.3     1  LIG1       -0.0377
     12 H          -6.3534   -1.8187   -0.6986 H       1  LIG1        0.0278
     13 H          -6.4798   -0.6048    0.5864 H       1  LIG1        0.0278
     14 H          -5.8457   -2.2151    0.9566 H       1  LIG1        0.0278
     15 C          -6.1835    1.5947   -1.0044 C.ar    1  LIG1        0.1499
     16 C          -5.0563    1.4956   -0.1846 C.ar    1  LIG1        0.0368
     17 C          -4.8157    2.5669    0.6691 C.ar    1  LIG1       -0.0449
     18 C          -5.6996    3.6404    0.7467 C.ar    1  LIG1       -0.0237
     19 C          -6.8455    3.5704   -0.0660 C.ar    1  LIG1        0.0781
     20 N          -7.0532    2.5933   -0.9444 N.ar    1  LIG1       -0.2353
     21 H          -3.9106    2.5637    1.2652 H       1  LIG1        0.0628
     22 N          -6.6103   -0.2051   -2.8399 N.1     1  LIG1       -0.1893
     23 C          -6.4349    0.5901   -2.0323 C.1     1  LIG1        0.1198
     24 C          -5.3625    4.8204    1.6375 C.3     1  LIG1       -0.0377
     25 H          -5.5830    4.5808    2.6780 H       1  LIG1        0.0278
     26 H          -5.9328    5.7031    1.3513 H       1  LIG1        0.0278
     27 H          -4.2999    5.0424    1.5393 H       1  LIG1        0.0278
     28 C          -8.5976    5.0185    1.0825 C.ar    1  LIG1        0.1499
     29 C          -7.9113    4.6204   -0.0670 C.ar    1  LIG1        0.0368
     30 C          -8.2997    5.2189   -1.2616 C.ar    1  LIG1       -0.0449
     31 C          -9.3032    6.1839   -1.2902 C.ar    1  LIG1       -0.0237
     32 C          -9.9181    6.4916   -0.0623 C.ar    1  LIG1        0.0781
     33 N          -9.5617    5.9293    1.0898 N.ar    1  LIG1       -0.2353
     34 H          -7.8000    4.9262   -2.1776 H       1  LIG1        0.0628
     35 N          -8.0509    3.8869    3.3658 N.1     1  LIG1       -0.1893
     36 C          -8.3008    4.3939    2.3678 C.1     1  LIG1        0.1198
     37 C          -9.6510    6.8623   -2.6006 C.3     1  LIG1       -0.0377
     38 H         -10.1600    7.8098   -2.4289 H       1  LIG1        0.0278
     39 H         -10.3029    6.2155   -3.1890 H       1  LIG1        0.0278
     40 H          -8.7350    7.0501   -3.1602 H       1  LIG1        0.0278
     41 C         -12.2136    7.4377   -0.6289 C.ar    1  LIG1        0.1492
     42 C         -11.0057    7.5115    0.0699 C.ar    1  LIG1        0.0367
     43 C         -10.8619    8.5648    0.9702 C.ar    1  LIG1       -0.0455
     44 C         -11.8746    9.5077    1.1120 C.ar    1  LIG1       -0.0316
     45 C         -13.0193    9.3366    0.3267 C.ar    1  LIG1        0.0320
     46 N         -13.1956    8.3255   -0.5141 N.ar    1  LIG1       -0.2437
     47 H          -9.9537    8.6335    1.5579 H       1  LIG1        0.0628
     48 H         -13.8361   10.0465    0.3919 H       1  LIG1        0.0832
     49 N         -12.6541    5.4216   -2.2206 N.1     1  LIG1       -0.1893
     50 C         -12.4714    6.3132   -1.5229 C.1     1  LIG1        0.1198
     51 C         -11.7530   10.6599    2.0875 C.3     1  LIG1       -0.0383
     52 H         -10.7940   11.1623    1.9600 H       1  LIG1        0.0278
     53 H         -11.8163   10.2865    3.1105 H       1  LIG1        0.0278
     54 H         -12.5524   11.3820    1.9283 H       1  LIG1        0.0278
@<TRIPOS>BOND
     1    39    37    1
     2    40    37    1
     3    22    23    3
     4    37    38    1
     5    37    31    1
     6    49    50    3
     7    34    30    1
     8    23    15    1
     9    50    41    1
    10    31    30   ar
    11    31    32   ar
    12    30    29   ar
    13    15    20   ar
    14    15    16   ar
    15    20    19   ar
    16     9    10    3
    17    10     1    1
    18    12    11    1
    19    41    46   ar
    20    41    42   ar
    21     8     2    1
    22     1     2   ar
    23     1     6   ar
    24    46    45   ar
    25     2     3   ar
    26     6     5   ar
    27     5    16    1
    28     5     4   ar
    29     3     7    1
    30     3     4   ar
    31    16    17   ar
    32     4    11    1
    33    29    19    1
    34    29    28   ar
    35    19    18   ar
    36    32    42    1
    37    32    33   ar
    38    42    43   ar
    39    11    13    1
    40    11    14    1
    41    45    48    1
    42    45    44   ar
    43    17    18   ar
    44    17    21    1
    45    18    24    1
    46    43    44   ar
    47    43    47    1
    48    28    33   ar
    49    28    36    1
    50    44    51    1
    51    26    24    1
    52    27    24    1
    53    24    25    1
    54    54    51    1
    55    52    51    1
    56    51    53    1
    57    36    35    3
