@<TRIPOS>MOLECULE
mol_data/opt/m06hf/geoms/mol2/6di6di-4di6di.out
 55 58 0 0 0
SMALL
GASTEIGER

@<TRIPOS>ATOM
      1 C          -4.4658   -2.2528    0.0764 C.ar    1  LIG1        0.1407
      2 C          -3.0857   -2.3163   -0.1030 C.ar    1  LIG1       -0.0255
      3 C          -2.4109   -1.1170   -0.2712 C.ar    1  LIG1       -0.0541
      4 C          -3.1055    0.0940   -0.2832 C.ar    1  LIG1       -0.0243
      5 C          -4.5022    0.0174   -0.1434 C.ar    1  LIG1        0.0781
      6 N          -5.1596   -1.1232    0.0598 N.ar    1  LIG1       -0.2360
      7 H          -1.3335   -1.1109   -0.3816 H       1  LIG1        0.0622
      8 H          -2.5762   -3.2693   -0.0897 H       1  LIG1        0.0646
      9 N          -5.7757   -4.4656    0.4940 N.1     1  LIG1       -0.1893
     10 C          -5.2184   -3.4815    0.3079 C.1     1  LIG1        0.1191
     11 C          -2.3391    1.3980   -0.3972 C.3     1  LIG1       -0.0377
     12 H          -2.9262    2.2383   -0.0276 H       1  LIG1        0.0278
     13 H          -2.0776    1.5867   -1.4390 H       1  LIG1        0.0278
     14 H          -1.4243    1.3247    0.1911 H       1  LIG1        0.0278
     15 C          -5.4018    2.1487   -1.2017 C.ar    1  LIG1        0.1499
     16 C          -5.3772    1.2302   -0.1515 C.ar    1  LIG1        0.0368
     17 C          -6.2459    1.4686    0.9114 C.ar    1  LIG1       -0.0449
     18 C          -7.0506    2.6018    0.9294 C.ar    1  LIG1       -0.0237
     19 C          -6.9447    3.4712   -0.1704 C.ar    1  LIG1        0.0766
     20 N          -6.1533    3.2433   -1.2105 N.ar    1  LIG1       -0.2354
     21 H          -6.2737    0.7591    1.7296 H       1  LIG1        0.0628
     22 N          -3.9575    1.7026   -3.3242 N.1     1  LIG1       -0.1893
     23 C          -4.5956    1.9151   -2.3953 C.1     1  LIG1        0.1198
     24 C          -7.9710    2.8946    2.0975 C.3     1  LIG1       -0.0377
     25 H          -7.6853    2.2858    2.9538 H       1  LIG1        0.0278
     26 H          -9.0045    2.6618    1.8362 H       1  LIG1        0.0278
     27 H          -7.9149    3.9482    2.3713 H       1  LIG1        0.0278
     28 C          -6.9929    5.9707   -0.1355 C.ar    1  LIG1        0.0615
     29 C          -7.6683    7.1863   -0.1780 C.ar    1  LIG1       -0.0357
     30 C          -7.6990    4.7653   -0.2128 C.ar    1  LIG1        0.0183
     31 C          -9.0582    7.2104   -0.2977 C.ar    1  LIG1       -0.0110
     32 H          -7.1110    8.1124   -0.1261 H       1  LIG1        0.0637
     33 C          -9.0829    4.8055   -0.3230 C.ar    1  LIG1       -0.0478
     34 C          -9.7862    6.0126   -0.3662 C.ar    1  LIG1       -0.0420
     35 H          -9.6313    3.8730   -0.3881 H       1  LIG1        0.0627
     36 N          -4.4146    5.9294    0.1764 N.1     1  LIG1       -0.1908
     37 C          -5.5517    5.9494    0.0235 C.1     1  LIG1        0.0998
     38 C         -11.2988    5.9850   -0.4799 C.3     1  LIG1       -0.0391
     39 H         -11.6883    5.0948    0.0130 H       1  LIG1        0.0278
     40 H         -11.5882    5.9591   -1.5321 H       1  LIG1        0.0278
     41 H         -11.7412    6.8672   -0.0178 H       1  LIG1        0.0278
     42 C         -10.4186    9.0293   -1.4318 C.ar    1  LIG1        0.1477
     43 C          -9.7297    8.5461   -0.3136 C.ar    1  LIG1        0.0185
     44 C          -9.6678    9.3909    0.7932 C.ar    1  LIG1       -0.0469
     45 C         -10.2781   10.6421    0.7610 C.ar    1  LIG1       -0.0317
     46 C         -10.9427   10.9957   -0.4166 C.ar    1  LIG1        0.0320
     47 N         -11.0126   10.2155   -1.4885 N.ar    1  LIG1       -0.2438
     48 H          -9.1455    9.0585    1.6837 H       1  LIG1        0.0628
     49 H         -11.4389   11.9563   -0.4961 H       1  LIG1        0.0832
     50 N         -10.5737    7.5443   -3.5677 N.1     1  LIG1       -0.1893
     51 C         -10.5037    8.2095   -2.6363 C.1     1  LIG1        0.1197
     52 C         -10.2198   11.5829    1.9468 C.3     1  LIG1       -0.0383
     53 H         -10.8869   12.4301    1.7949 H       1  LIG1        0.0278
     54 H          -9.2033   11.9573    2.0768 H       1  LIG1        0.0278
     55 H         -10.5161   11.0610    2.8569 H       1  LIG1        0.0278
@<TRIPOS>BOND
     1    50    51    3
     2    22    23    3
     3    51    42    1
     4    23    15    1
     5    40    38    1
     6    47    42   ar
     7    47    46   ar
     8    13    11    1
     9    42    43   ar
    10    20    15   ar
    11    20    19   ar
    12    15    16   ar
    13    49    46    1
    14    38    34    1
    15    38    41    1
    16    38    39    1
    17    46    45   ar
    18    11     4    1
    19    11    12    1
    20    11    14    1
    21    35    33    1
    22     7     3    1
    23    34    33   ar
    24    34    31   ar
    25    33    30   ar
    26    43    31    1
    27    43    44   ar
    28    31    29   ar
    29     4     3   ar
    30     4     5   ar
    31     3     2   ar
    32    30    19    1
    33    30    28   ar
    34    29    28   ar
    35    29    32    1
    36    19    18   ar
    37    16     5    1
    38    16    17   ar
    39     5     6   ar
    40    28    37    1
    41     2     8    1
    42     2     1   ar
    43    37    36    3
    44     6     1   ar
    45     1    10    1
    46    10     9    3
    47    45    44   ar
    48    45    52    1
    49    44    48    1
    50    17    18   ar
    51    17    21    1
    52    18    24    1
    53    53    52    1
    54    26    24    1
    55    52    54    1
    56    52    55    1
    57    24    27    1
    58    24    25    1
