@<TRIPOS>MOLECULE
mol_data/opt/m06hf/geoms/mol2/6di6di-.out
 28 29 0 0 0
SMALL
GASTEIGER

@<TRIPOS>ATOM
      1 C          -4.4333   -1.9741   -0.7157 C.ar    1  LIG1        0.1407
      2 C          -3.1185   -2.0930   -0.2716 C.ar    1  LIG1       -0.0255
      3 C          -2.5310   -0.9635    0.2766 C.ar    1  LIG1       -0.0541
      4 C          -3.2337    0.2406    0.3488 C.ar    1  LIG1       -0.0243
      5 C          -4.5343    0.2440   -0.1841 C.ar    1  LIG1        0.0781
      6 N          -5.1249   -0.8444   -0.6763 N.ar    1  LIG1       -0.2360
      7 H          -1.5214   -1.0118    0.6659 H       1  LIG1        0.0622
      8 H          -2.6003   -3.0387   -0.3411 H       1  LIG1        0.0646
      9 N          -5.6279   -4.0873   -1.6620 N.1     1  LIG1       -0.1893
     10 C          -5.1191   -3.1450   -1.2533 C.1     1  LIG1        0.1191
     11 C          -2.5935    1.4394    1.0209 C.3     1  LIG1       -0.0377
     12 H          -3.3413    2.1814    1.2975 H       1  LIG1        0.0278
     13 H          -1.8722    1.9041    0.3478 H       1  LIG1        0.0278
     14 H          -2.0785    1.1079    1.9228 H       1  LIG1        0.0278
     15 C          -5.0276    2.6619   -0.8151 C.ar    1  LIG1        0.1492
     16 C          -5.4043    1.4616   -0.2069 C.ar    1  LIG1        0.0367
     17 C          -6.6883    1.4052    0.3311 C.ar    1  LIG1       -0.0455
     18 C          -7.5154    2.5221    0.2884 C.ar    1  LIG1       -0.0316
     19 C          -7.0033    3.6724   -0.3217 C.ar    1  LIG1        0.0320
     20 N          -5.7977    3.7438   -0.8706 N.ar    1  LIG1       -0.2437
     21 H          -7.0300    0.4762    0.7733 H       1  LIG1        0.0628
     22 H          -7.6050    4.5721   -0.3791 H       1  LIG1        0.0832
     23 N          -2.7084    2.8408   -1.9915 N.1     1  LIG1       -0.1893
     24 C          -3.7317    2.7702   -1.4782 C.1     1  LIG1        0.1198
     25 C          -8.9156    2.4927    0.8645 C.3     1  LIG1       -0.0383
     26 H          -8.8856    2.1892    1.9113 H       1  LIG1        0.0278
     27 H          -9.5290    1.7779    0.3143 H       1  LIG1        0.0278
     28 H          -9.3779    3.4764    0.7964 H       1  LIG1        0.0278
@<TRIPOS>BOND
     1    23    24    3
     2     9    10    3
     3    24    15    1
     4    10     1    1
     5    20    15   ar
     6    20    19   ar
     7    15    16   ar
     8     1     6   ar
     9     1     2   ar
    10     6     5   ar
    11    22    19    1
    12     8     2    1
    13    19    18   ar
    14     2     3   ar
    15    16     5    1
    16    16    17   ar
    17     5     4   ar
    18     3     4   ar
    19     3     7    1
    20    18    17   ar
    21    18    25    1
    22    27    25    1
    23    17    21    1
    24    13    11    1
    25     4    11    1
    26    28    25    1
    27    25    26    1
    28    11    12    1
    29    11    14    1
