@<TRIPOS>MOLECULE
mol_data/opt/m06hf/geoms/mol2/6di6di6di-6di.out
 54 57 0 0 0
SMALL
GASTEIGER

@<TRIPOS>ATOM
      1 C          -2.9897   -1.0676   -1.7047 C.ar    1  LIG1        0.1407
      2 C          -2.7638   -2.0407   -0.7333 C.ar    1  LIG1       -0.0255
      3 C          -3.3705   -1.8588    0.4994 C.ar    1  LIG1       -0.0541
      4 C          -4.1900   -0.7525    0.7323 C.ar    1  LIG1       -0.0243
      5 C          -4.3790    0.1284   -0.3454 C.ar    1  LIG1        0.0781
      6 N          -3.7708   -0.0127   -1.5225 N.ar    1  LIG1       -0.2360
      7 H          -3.2010   -2.5704    1.2984 H       1  LIG1        0.0622
      8 H          -2.1249   -2.8863   -0.9453 H       1  LIG1        0.0646
      9 N          -1.7983   -1.3076   -4.0085 N.1     1  LIG1       -0.1893
     10 C          -2.3351   -1.1844   -3.0034 C.1     1  LIG1        0.1191
     11 C          -4.7802   -0.5403    2.1129 C.3     1  LIG1       -0.0377
     12 H          -5.6448   -1.1895    2.2542 H       1  LIG1        0.0278
     13 H          -5.0924    0.4937    2.2533 H       1  LIG1        0.0278
     14 H          -4.0260   -0.7821    2.8620 H       1  LIG1        0.0278
     15 C          -6.5957    1.3135    0.0917 C.ar    1  LIG1        0.1499
     16 C          -5.2439    1.3475   -0.2613 C.ar    1  LIG1        0.0368
     17 C          -4.7209    2.5931   -0.5918 C.ar    1  LIG1       -0.0449
     18 C          -5.5062    3.7427   -0.5433 C.ar    1  LIG1       -0.0237
     19 C          -6.8541    3.5688   -0.1821 C.ar    1  LIG1        0.0781
     20 N          -7.3735    2.3863    0.1384 N.ar    1  LIG1       -0.2353
     21 H          -3.6792    2.6599   -0.8836 H       1  LIG1        0.0628
     22 N          -7.7300   -0.9649    0.6501 N.1     1  LIG1       -0.1893
     23 C          -7.2426    0.0434    0.4040 C.1     1  LIG1        0.1198
     24 C          -4.8702    5.0884   -0.8326 C.3     1  LIG1       -0.0377
     25 H          -5.4793    5.9040   -0.4453 H       1  LIG1        0.0278
     26 H          -4.7507    5.2186   -1.9087 H       1  LIG1        0.0278
     27 H          -3.8900    5.1266   -0.3576 H       1  LIG1        0.0278
     28 C          -8.1069    5.5815   -1.1263 C.ar    1  LIG1        0.1499
     29 C          -7.8260    4.7026   -0.0777 C.ar    1  LIG1        0.0368
     30 C          -8.5370    4.8982    1.1020 C.ar    1  LIG1       -0.0449
     31 C          -9.4576    5.9357    1.2285 C.ar    1  LIG1       -0.0237
     32 C          -9.6530    6.7450    0.0944 C.ar    1  LIG1        0.0781
     33 N          -8.9827    6.5738   -1.0424 N.ar    1  LIG1       -0.2353
     34 H          -8.3571    4.2297    1.9360 H       1  LIG1        0.0628
     35 N          -6.9269    5.2900   -3.4310 N.1     1  LIG1       -0.1893
     36 C          -7.4519    5.4231   -2.4203 C.1     1  LIG1        0.1198
     37 C         -10.1522    6.1576    2.5575 C.3     1  LIG1       -0.0377
     38 H          -9.4367    5.9994    3.3643 H       1  LIG1        0.0278
     39 H         -10.9762    5.4518    2.6675 H       1  LIG1        0.0278
     40 H         -10.5456    7.1706    2.6308 H       1  LIG1        0.0278
     41 C         -11.9640    7.7915    0.3471 C.ar    1  LIG1        0.1492
     42 C         -10.6000    7.9038    0.0671 C.ar    1  LIG1        0.0367
     43 C         -10.1387    9.1595   -0.3248 C.ar    1  LIG1       -0.0455
     44 C         -11.0112   10.2399   -0.3819 C.ar    1  LIG1       -0.0316
     45 C         -12.3487    9.9973   -0.0475 C.ar    1  LIG1        0.0320
     46 N         -12.8204    8.8072    0.2984 N.ar    1  LIG1       -0.2437
     47 H          -9.0947    9.2738   -0.5928 H       1  LIG1        0.0628
     48 H         -13.0722   10.8039   -0.0775 H       1  LIG1        0.0832
     49 N         -12.9761    5.4613    0.9279 N.1     1  LIG1       -0.1893
     50 C         -12.5398    6.4908    0.6733 C.1     1  LIG1        0.1198
     51 C         -10.5396   11.6238   -0.7768 C.3     1  LIG1       -0.0383
     52 H         -11.3875   12.2561   -1.0363 H       1  LIG1        0.0278
     53 H          -9.8701   11.5635   -1.6345 H       1  LIG1        0.0278
     54 H         -10.0019   12.0854    0.0534 H       1  LIG1        0.0278
@<TRIPOS>BOND
     1     9    10    3
     2    35    36    3
     3    10     1    1
     4    36    28    1
     5    26    24    1
     6     1     6   ar
     7     1     2   ar
     8    53    51    1
     9     6     5   ar
    10    28    33   ar
    11    28    29   ar
    12    33    32   ar
    13    52    51    1
    14     8     2    1
    15    21    17    1
    16    24    18    1
    17    24    25    1
    18    24    27    1
    19    51    44    1
    20    51    54    1
    21     2     3   ar
    22    47    43    1
    23    17    18   ar
    24    17    16   ar
    25    18    19   ar
    26    44    43   ar
    27    44    45   ar
    28     5    16    1
    29     5     4   ar
    30    43    42   ar
    31    16    15   ar
    32    19    29    1
    33    19    20   ar
    34    29    30   ar
    35    48    45    1
    36    45    46   ar
    37    42    32    1
    38    42    41   ar
    39    15    20   ar
    40    15    23    1
    41    32    31   ar
    42    46    41   ar
    43    41    50    1
    44    23    22    3
    45     3     4   ar
    46     3     7    1
    47    50    49    3
    48     4    11    1
    49    30    31   ar
    50    30    34    1
    51    31    37    1
    52    11    13    1
    53    11    12    1
    54    11    14    1
    55    37    40    1
    56    37    39    1
    57    37    38    1
