@<TRIPOS>MOLECULE
mol_data/opt/m06hf/geoms/mol2/6di6di-6di-6di.out
 54 57 0 0 0
SMALL
GASTEIGER

@<TRIPOS>ATOM
      1 C          -4.5145   -2.1850    0.6025 C.ar    1  LIG1        0.1407
      2 C          -3.3545   -2.4606   -0.1181 C.ar    1  LIG1       -0.0255
      3 C          -2.7973   -1.4203   -0.8453 C.ar    1  LIG1       -0.0541
      4 C          -3.3994   -0.1607   -0.8612 C.ar    1  LIG1       -0.0243
      5 C          -4.5913   -0.0251   -0.1295 C.ar    1  LIG1        0.0781
      6 N          -5.1184   -1.0052    0.6030 N.ar    1  LIG1       -0.2360
      7 H          -1.8789   -1.5758   -1.3982 H       1  LIG1        0.0622
      8 H          -2.9128   -3.4464   -0.0867 H       1  LIG1        0.0646
      9 N          -5.5726   -4.0753    2.0496 N.1     1  LIG1       -0.1893
     10 C          -5.1226   -3.2320    1.4171 C.1     1  LIG1        0.1191
     11 C          -2.7313    0.9778   -1.6079 C.3     1  LIG1       -0.0377
     12 H          -3.1012    1.9443   -1.2689 H       1  LIG1        0.0278
     13 H          -2.9209    0.8847   -2.6779 H       1  LIG1        0.0278
     14 H          -1.6566    0.9348   -1.4316 H       1  LIG1        0.0278
     15 C          -5.8311    1.9311   -1.1918 C.ar    1  LIG1        0.1499
     16 C          -5.3603    1.2563   -0.0625 C.ar    1  LIG1        0.0368
     17 C          -5.7194    1.7888    1.1711 C.ar    1  LIG1       -0.0449
     18 C          -6.4463    2.9733    1.2619 C.ar    1  LIG1       -0.0237
     19 C          -6.7769    3.6018    0.0477 C.ar    1  LIG1        0.0781
     20 N          -6.5104    3.0683   -1.1413 N.ar    1  LIG1       -0.2353
     21 H          -5.4394    1.2526    2.0704 H       1  LIG1        0.0628
     22 N          -5.4668    0.9029   -3.5584 N.1     1  LIG1       -0.1893
     23 C          -5.6286    1.3670   -2.5222 C.1     1  LIG1        0.1198
     24 C          -6.8778    3.4804    2.6243 C.3     1  LIG1       -0.0377
     25 H          -7.2080    2.6335    3.2259 H       1  LIG1        0.0278
     26 H          -7.6999    4.1894    2.5363 H       1  LIG1        0.0278
     27 H          -6.0423    3.9704    3.1248 H       1  LIG1        0.0278
     28 C          -7.0796    6.0682    0.6055 C.ar    1  LIG1        0.1499
     29 C          -7.5160    4.9007   -0.0247 C.ar    1  LIG1        0.0368
     30 C          -8.6747    5.0022   -0.7884 C.ar    1  LIG1       -0.0449
     31 C          -9.3685    6.2056   -0.8871 C.ar    1  LIG1       -0.0237
     32 C          -8.8196    7.3082   -0.2062 C.ar    1  LIG1        0.0781
     33 N          -7.7122    7.2312    0.5275 N.ar    1  LIG1       -0.2353
     34 H          -9.0377    4.1209   -1.3041 H       1  LIG1        0.0628
     35 N          -4.8569    6.0433    1.9663 N.1     1  LIG1       -0.1893
     36 C          -5.8372    6.0682    1.3716 C.1     1  LIG1        0.1198
     37 C         -10.6638    6.2596   -1.6729 C.3     1  LIG1       -0.0377
     38 H         -11.2310    5.3472   -1.4903 H       1  LIG1        0.0278
     39 H         -10.4457    6.3375   -2.7386 H       1  LIG1        0.0278
     40 H         -11.2677    7.1158   -1.3755 H       1  LIG1        0.0278
     41 C          -9.7064    9.3873   -1.3795 C.ar    1  LIG1        0.1492
     42 C          -9.4529    8.6644   -0.2107 C.ar    1  LIG1        0.0367
     43 C          -9.7613    9.2888    0.9958 C.ar    1  LIG1       -0.0455
     44 C         -10.3345   10.5561    1.0016 C.ar    1  LIG1       -0.0316
     45 C         -10.5683   11.1557   -0.2402 C.ar    1  LIG1        0.0320
     46 N         -10.2548   10.5974   -1.4022 N.ar    1  LIG1       -0.2437
     47 H          -9.5438    8.7742    1.9246 H       1  LIG1        0.0628
     48 H         -11.0200   12.1398   -0.2939 H       1  LIG1        0.0832
     49 N          -9.0220    8.3813   -3.6842 N.1     1  LIG1       -0.1893
     50 C          -9.3274    8.8340   -2.6757 C.1     1  LIG1        0.1198
     51 C         -10.6742   11.2658    2.2959 C.3     1  LIG1       -0.0383
     52 H         -11.2716   12.1548    2.0994 H       1  LIG1        0.0278
     53 H          -9.7571   11.5648    2.8053 H       1  LIG1        0.0278
     54 H         -11.2361   10.6023    2.9535 H       1  LIG1        0.0278
@<TRIPOS>BOND
     1    49    50    3
     2    22    23    3
     3    39    37    1
     4    13    11    1
     5    50    41    1
     6    23    15    1
     7    37    38    1
     8    37    40    1
     9    37    31    1
    10    11    14    1
    11    11    12    1
    12    11     4    1
    13    46    41   ar
    14    46    45   ar
    15     7     3    1
    16    41    42   ar
    17    34    30    1
    18    15    20   ar
    19    15    16   ar
    20    20    19   ar
    21    31    30   ar
    22    31    32   ar
    23     4     3   ar
    24     4     5   ar
    25     3     2   ar
    26    30    29   ar
    27    48    45    1
    28    45    44   ar
    29    42    32    1
    30    42    43   ar
    31    32    33   ar
    32     5    16    1
    33     5     6   ar
    34     2     8    1
    35     2     1   ar
    36    16    17   ar
    37    29    19    1
    38    29    28   ar
    39    19    18   ar
    40    33    28   ar
    41     1     6   ar
    42     1    10    1
    43    28    36    1
    44    43    44   ar
    45    43    47    1
    46    44    51    1
    47    17    18   ar
    48    17    21    1
    49    18    24    1
    50    36    35    3
    51    10     9    3
    52    52    51    1
    53    51    53    1
    54    51    54    1
    55    26    24    1
    56    24    27    1
    57    24    25    1
