@<TRIPOS>MOLECULE
mol_data/opt/m06hf/geoms/mol2/6di6di6di6di.out
 54 57 0 0 0
SMALL
GASTEIGER

@<TRIPOS>ATOM
      1 C          -2.1330   -0.5454   -0.3477 C.ar    1  LIG1        0.1407
      2 C          -2.5431   -1.8732   -0.4421 C.ar    1  LIG1       -0.0255
      3 C          -3.9065   -2.1204   -0.3987 C.ar    1  LIG1       -0.0541
      4 C          -4.8173   -1.0679   -0.2894 C.ar    1  LIG1       -0.0243
      5 C          -4.2773    0.2285   -0.2497 C.ar    1  LIG1        0.0781
      6 N          -2.9690    0.4788   -0.2523 N.ar    1  LIG1       -0.2360
      7 H          -4.2754   -3.1382   -0.4370 H       1  LIG1        0.0622
      8 H          -1.8136   -2.6660   -0.5273 H       1  LIG1        0.0646
      9 N           0.4167   -0.0122   -0.3400 N.1     1  LIG1       -0.1893
     10 C          -0.7089   -0.2287   -0.3440 C.1     1  LIG1        0.1191
     11 C          -6.2995   -1.3663   -0.1758 C.3     1  LIG1       -0.0377
     12 H          -6.7220   -1.5490   -1.1645 H       1  LIG1        0.0278
     13 H          -6.8336   -0.5378    0.2878 H       1  LIG1        0.0278
     14 H          -6.4371   -2.2561    0.4384 H       1  LIG1        0.0278
     15 C          -6.1151    1.7890   -1.0741 C.ar    1  LIG1        0.1499
     16 C          -5.1244    1.4581   -0.1470 C.ar    1  LIG1        0.0368
     17 C          -4.8830    2.3860    0.8618 C.ar    1  LIG1       -0.0449
     18 C          -5.6423    3.5482    0.9682 C.ar    1  LIG1       -0.0237
     19 C          -6.6575    3.7246    0.0111 C.ar    1  LIG1        0.0781
     20 N          -6.8599    2.8842   -0.9995 N.ar    1  LIG1       -0.2353
     21 H          -4.0754    2.1978    1.5595 H       1  LIG1        0.0628
     22 N          -6.5316    0.2564   -3.1400 N.1     1  LIG1       -0.1893
     23 C          -6.3547    0.9359   -2.2334 C.1     1  LIG1        0.1198
     24 C          -5.3214    4.5614    2.0496 C.3     1  LIG1       -0.0377
     25 H          -5.7956    4.2702    2.9878 H       1  LIG1        0.0278
     26 H          -5.6707    5.5550    1.7715 H       1  LIG1        0.0278
     27 H          -4.2419    4.5969    2.1936 H       1  LIG1        0.0278
     28 C          -8.3847    5.2530    1.0856 C.ar    1  LIG1        0.1499
     29 C          -7.5663    4.9126    0.0059 C.ar    1  LIG1        0.0368
     30 C          -7.6917    5.6926   -1.1387 C.ar    1  LIG1       -0.0449
     31 C          -8.5416    6.7955   -1.1678 C.ar    1  LIG1       -0.0237
     32 C          -9.2502    7.0763    0.0144 C.ar    1  LIG1        0.0781
     33 N          -9.1983    6.2998    1.0942 N.ar    1  LIG1       -0.2353
     34 H          -7.1253    5.4179   -2.0209 H       1  LIG1        0.0628
     35 N          -8.4169    3.7224    3.1946 N.1     1  LIG1       -0.1893
     36 C          -8.4119    4.4080    2.2752 C.1     1  LIG1        0.1198
     37 C          -8.6909    7.5898   -2.4503 C.3     1  LIG1       -0.0377
     38 H          -7.8578    8.2856   -2.5573 H       1  LIG1        0.0278
     39 H          -9.6229    8.1533   -2.4566 H       1  LIG1        0.0278
     40 H          -8.6907    6.9014   -3.2952 H       1  LIG1        0.0278
     41 C          -9.7768    9.5643   -0.0541 C.ar    1  LIG1        0.1492
     42 C         -10.1797    8.2414    0.1469 C.ar    1  LIG1        0.0367
     43 C         -11.4989    8.0378    0.5456 C.ar    1  LIG1       -0.0455
     44 C         -12.3616    9.1198    0.6863 C.ar    1  LIG1       -0.0316
     45 C         -11.8395   10.3908    0.4237 C.ar    1  LIG1        0.0320
     46 N         -10.5796   10.6153    0.0735 N.ar    1  LIG1       -0.2437
     47 H         -11.8369    7.0277    0.7467 H       1  LIG1        0.0628
     48 H         -12.4700   11.2682    0.5131 H       1  LIG1        0.0832
     49 N          -7.2908   10.0716   -0.6508 N.1     1  LIG1       -0.1893
     50 C          -8.3872    9.8603   -0.3882 C.1     1  LIG1        0.1198
     51 C         -13.8004    8.9334    1.1207 C.3     1  LIG1       -0.0383
     52 H         -14.3440    9.8750    1.0573 H       1  LIG1        0.0278
     53 H         -13.8339    8.5775    2.1512 H       1  LIG1        0.0278
     54 H         -14.2943    8.1988    0.4841 H       1  LIG1        0.0278
@<TRIPOS>BOND
     1    40    37    1
     2    22    23    3
     3    38    37    1
     4    39    37    1
     5    37    31    1
     6    23    15    1
     7    34    30    1
     8    31    30   ar
     9    31    32   ar
    10    12    11    1
    11    30    29   ar
    12    15    20   ar
    13    15    16   ar
    14    20    19   ar
    15    49    50    3
    16     8     2    1
    17     2     3   ar
    18     2     1   ar
    19     7     3    1
    20     3     4   ar
    21    50    41    1
    22     1    10    1
    23     1     6   ar
    24    10     9    3
    25     4     5   ar
    26     4    11    1
    27     6     5   ar
    28     5    16    1
    29    11    13    1
    30    11    14    1
    31    16    17   ar
    32    41    46   ar
    33    41    42   ar
    34    29    19    1
    35    29    28   ar
    36    19    18   ar
    37    32    42    1
    38    32    33   ar
    39    46    45   ar
    40    42    43   ar
    41    45    48    1
    42    45    44   ar
    43    54    51    1
    44    43    44   ar
    45    43    47    1
    46    44    51    1
    47    17    18   ar
    48    17    21    1
    49    18    24    1
    50    52    51    1
    51    28    33   ar
    52    28    36    1
    53    51    53    1
    54    26    24    1
    55    24    27    1
    56    24    25    1
    57    36    35    3
