@<TRIPOS>MOLECULE
mol_data/opt/m06hf/geoms/mol2/6di6di.out
 28 29 0 0 0
SMALL
GASTEIGER

@<TRIPOS>ATOM
      1 C          -4.2828   -1.5378   -1.3636 C.ar    1  LIG1        0.1407
      2 C          -3.3144   -2.1135   -0.5446 C.ar    1  LIG1       -0.0255
      3 C          -2.9152   -1.3901    0.5684 C.ar    1  LIG1       -0.0541
      4 C          -3.4891   -0.1500    0.8548 C.ar    1  LIG1       -0.0243
      5 C          -4.4953    0.2955   -0.0195 C.ar    1  LIG1        0.0781
      6 N          -4.8592   -0.3707   -1.1147 N.ar    1  LIG1       -0.2360
      7 H          -2.1422   -1.7791    1.2197 H       1  LIG1        0.0622
      8 H          -2.8889   -3.0754   -0.7925 H       1  LIG1        0.0646
      9 N          -5.0013   -2.8009   -3.5261 N.1     1  LIG1       -0.1893
     10 C          -4.7024   -2.2312   -2.5775 C.1     1  LIG1        0.1191
     11 C          -2.9805    0.6529    2.0361 C.3     1  LIG1       -0.0377
     12 H          -3.3892    0.2517    2.9642 H       1  LIG1        0.0278
     13 H          -3.2669    1.7003    1.9525 H       1  LIG1        0.0278
     14 H          -1.8927    0.5884    2.0675 H       1  LIG1        0.0278
     15 C          -5.9316    1.9101    1.3289 C.ar    1  LIG1        0.1492
     16 C          -5.2252    1.5888    0.1668 C.ar    1  LIG1        0.0367
     17 C          -5.2842    2.5073   -0.8792 C.ar    1  LIG1       -0.0455
     18 C          -5.9847    3.6988   -0.7264 C.ar    1  LIG1       -0.0316
     19 C          -6.6218    3.9116    0.5009 C.ar    1  LIG1        0.0320
     20 N          -6.6093    3.0404    1.5012 N.ar    1  LIG1       -0.2437
     21 H          -4.7831    2.2720   -1.8112 H       1  LIG1        0.0628
     22 H          -7.1788    4.8252    0.6740 H       1  LIG1        0.0832
     23 N          -6.0231    0.2039    3.2973 N.1     1  LIG1       -0.1893
     24 C          -5.9901    0.9596    2.4351 C.1     1  LIG1        0.1198
     25 C          -6.0673    4.7173   -1.8442 C.3     1  LIG1       -0.0383
     26 H          -6.5995    5.6074   -1.5118 H       1  LIG1        0.0278
     27 H          -6.5959    4.2906   -2.6976 H       1  LIG1        0.0278
     28 H          -5.0661    5.0050   -2.1659 H       1  LIG1        0.0278
@<TRIPOS>BOND
     1     9    10    3
     2    27    25    1
     3    10     1    1
     4    28    25    1
     5    25    26    1
     6    25    18    1
     7    21    17    1
     8     1     6   ar
     9     1     2   ar
    10     6     5   ar
    11    17    18   ar
    12    17    16   ar
    13     8     2    1
    14    18    19   ar
    15     2     3   ar
    16     5    16    1
    17     5     4   ar
    18    16    15   ar
    19    19    22    1
    20    19    20   ar
    21     3     4   ar
    22     3     7    1
    23     4    11    1
    24    15    20   ar
    25    15    24    1
    26    13    11    1
    27    11    14    1
    28    11    12    1
    29    24    23    3
