@<TRIPOS>MOLECULE
mol_data/opt/m06hf/geoms/mol2/6di6di-6di.out
 41 43 0 0 0
SMALL
GASTEIGER

@<TRIPOS>ATOM
      1 C          -4.4871   -2.0788   -0.6857 C.ar    1  LIG1        0.1407
      2 C          -3.1304   -2.2024   -0.3929 C.ar    1  LIG1       -0.0255
      3 C          -2.4732   -1.0690    0.0589 C.ar    1  LIG1       -0.0541
      4 C          -3.1528    0.1446    0.1828 C.ar    1  LIG1       -0.0243
      5 C          -4.5055    0.1500   -0.1966 C.ar    1  LIG1        0.0781
      6 N          -5.1600   -0.9412   -0.5922 N.ar    1  LIG1       -0.2360
      7 H          -1.4263   -1.1202    0.3318 H       1  LIG1        0.0622
      8 H          -2.6327   -3.1555   -0.5016 H       1  LIG1        0.0646
      9 N          -5.7920   -4.2030   -1.4411 N.1     1  LIG1       -0.1893
     10 C          -5.2376   -3.2546   -1.1141 C.1     1  LIG1        0.1191
     11 C          -2.4294    1.3499    0.7511 C.3     1  LIG1       -0.0377
     12 H          -3.1343    2.1068    1.0929 H       1  LIG1        0.0278
     13 H          -1.7830    1.7914   -0.0082 H       1  LIG1        0.0278
     14 H          -1.8207    1.0318    1.5977 H       1  LIG1        0.0278
     15 C          -5.0529    2.5629   -0.8141 C.ar    1  LIG1        0.1499
     16 C          -5.3624    1.3764   -0.1446 C.ar    1  LIG1        0.0368
     17 C          -6.5625    1.3572    0.5589 C.ar    1  LIG1       -0.0449
     18 C          -7.3920    2.4754    0.6042 C.ar    1  LIG1       -0.0237
     19 C          -6.9691    3.6030   -0.1232 C.ar    1  LIG1        0.0781
     20 N          -5.8235    3.6420   -0.7992 N.ar    1  LIG1       -0.2353
     21 H          -6.8442    0.4514    1.0830 H       1  LIG1        0.0628
     22 N          -2.8787    2.7250   -2.2420 N.1     1  LIG1       -0.1893
     23 C          -3.8393    2.6613   -1.6189 C.1     1  LIG1        0.1198
     24 C          -8.6540    2.4345    1.4428 C.3     1  LIG1       -0.0377
     25 H          -8.4456    1.9114    2.3759 H       1  LIG1        0.0278
     26 H          -9.4393    1.9032    0.9041 H       1  LIG1        0.0278
     27 H          -9.0050    3.4392    1.6740 H       1  LIG1        0.0278
     28 C          -9.0643    4.9649   -0.6282 C.ar    1  LIG1        0.1492
     29 C          -7.7436    4.8831   -0.1769 C.ar    1  LIG1        0.0367
     30 C          -7.1198    6.0810    0.1638 C.ar    1  LIG1       -0.0455
     31 C          -7.8186    7.2813    0.0893 C.ar    1  LIG1       -0.0316
     32 C          -9.1454    7.2200   -0.3481 C.ar    1  LIG1        0.0320
     33 N          -9.7544    6.0975   -0.7088 N.ar    1  LIG1       -0.2437
     34 H          -6.0829    6.0618    0.4787 H       1  LIG1        0.0628
     35 H          -9.7379    8.1248   -0.4218 H       1  LIG1        0.0832
     36 N         -10.2764    2.8079   -1.4463 N.1     1  LIG1       -0.1893
     37 C          -9.7534    3.7640   -1.0892 C.1     1  LIG1        0.1198
     38 C          -7.1676    8.5987    0.4559 C.3     1  LIG1       -0.0383
     39 H          -7.8779    9.4177    0.3546 H       1  LIG1        0.0278
     40 H          -6.3172    8.7884   -0.2001 H       1  LIG1        0.0278
     41 H          -6.8111    8.5679    1.4860 H       1  LIG1        0.0278
@<TRIPOS>BOND
     1    22    23    3
     2    23    15    1
     3    36    37    3
     4     9    10    3
     5    10     1    1
     6    37    28    1
     7    15    20   ar
     8    15    16   ar
     9    20    19   ar
    10    33    28   ar
    11    33    32   ar
    12     1     6   ar
    13     1     2   ar
    14    28    29   ar
    15     6     5   ar
    16     8     2    1
    17    35    32    1
    18     2     3   ar
    19    32    31   ar
    20    40    38    1
    21     5    16    1
    22     5     4   ar
    23    29    19    1
    24    29    30   ar
    25    16    17   ar
    26    19    18   ar
    27    13    11    1
    28     3     4   ar
    29     3     7    1
    30    31    30   ar
    31    31    38    1
    32    30    34    1
    33     4    11    1
    34    39    38    1
    35    38    41    1
    36    17    18   ar
    37    17    21    1
    38    18    24    1
    39    11    12    1
    40    11    14    1
    41    26    24    1
    42    24    27    1
    43    24    25    1
