@<TRIPOS>MOLECULE
mol_data/opt/m06hf/geoms/mol2/6dl12ae13ea-6hh-.out
 48 51 0 0 0
SMALL
GASTEIGER

@<TRIPOS>ATOM
      1 C          -4.4199   -2.0272   -0.6247 C.ar    1  LIG1        0.1411
      2 C          -3.0392   -2.0815   -0.5022 C.ar    1  LIG1       -0.0223
      3 C          -2.3664   -0.9057   -0.1772 C.ar    1  LIG1       -0.0150
      4 C          -3.1010    0.2587    0.0086 C.ar    1  LIG1        0.1491
      5 C          -4.5085    0.2048   -0.1409 C.ar    1  LIG1        0.1489
      6 N          -5.1347   -0.9189   -0.4487 N.ar    1  LIG1       -0.2296
      7 H          -1.2911   -0.9112   -0.0726 H       1  LIG1        0.0656
      8 H          -2.5105   -3.0108   -0.6562 H       1  LIG1        0.0647
      9 N          -5.7284   -4.1940   -1.2364 N.1     1  LIG1       -0.1893
     10 C          -5.1647   -3.2329   -0.9658 C.1     1  LIG1        0.1191
     11 O          -2.5717    1.4534    0.3236 O.3     1  LIG1       -0.4929
     12 C          -1.1605    1.5572    0.4425 C.3     1  LIG1        0.0789
     13 H          -0.9611    2.5982    0.6769 H       1  LIG1        0.0660
     14 H          -0.7978    0.9189    1.2508 H       1  LIG1        0.0660
     15 H          -0.6801    1.2886   -0.5006 H       1  LIG1        0.0660
     16 C          -5.3454    1.4007    0.0355 C.ar    1  LIG1        0.1587
     17 C          -5.1168    2.6939    0.3928 C.ar    1  LIG1        0.0019
     18 C          -6.3993    3.3448    0.3870 C.ar    1  LIG1        0.0725
     19 C          -7.3022    2.3861    0.0056 C.ar    1  LIG1        0.1683
     20 O          -6.6656    1.2196   -0.1989 O.2     1  LIG1       -0.4504
     21 H          -4.1738    3.1394    0.6468 H       1  LIG1        0.0668
     22 C          -6.6700    4.6885    0.7962 C.1     1  LIG1       -0.0658
     23 C          -6.8773    5.8114    1.1682 C.1     1  LIG1       -0.1138
     24 H          -7.0828    6.8028    1.4982 H       1  LIG1        0.1232
     25 C          -8.7427    2.3414   -0.1780 C.ar    1  LIG1        0.0993
     26 C          -9.6661    3.2766   -0.6339 C.ar    1  LIG1        0.0536
     27 C         -10.9290    2.6271   -0.6546 C.ar    1  LIG1       -0.0202
     28 C         -10.7353    1.3284   -0.2231 C.ar    1  LIG1        0.0515
     29 N          -9.4081    1.1814    0.0525 N.ar    1  LIG1       -0.3507
     30 H          -9.0028    0.3054    0.3733 H       1  LIG1        0.1660
     31 C          -9.3835    4.6010   -1.0977 C.1     1  LIG1       -0.0674
     32 C          -9.1562    5.7059   -1.5120 C.1     1  LIG1       -0.1138
     33 H          -8.9382    6.6812   -1.8787 H       1  LIG1        0.1232
     34 H         -11.8538    3.0688   -0.9843 H       1  LIG1        0.0651
     35 C         -11.3173   -1.1178    0.0117 C.ar    1  LIG1        0.1254
     36 C         -11.7029    0.2374   -0.0070 C.ar    1  LIG1        0.0396
     37 C         -13.0424    0.5294    0.2218 C.ar    1  LIG1       -0.0272
     38 C         -13.9565   -0.4946    0.4734 C.ar    1  LIG1        0.0437
     39 C         -13.4510   -1.7948    0.5120 C.ar    1  LIG1        0.0503
     40 N         -12.1760   -2.0878    0.2780 N.ar    1  LIG1       -0.2382
     41 H         -13.3681    1.5628    0.2468 H       1  LIG1        0.0644
     42 H         -14.1059   -2.6290    0.7389 H       1  LIG1        0.0849
     43 N          -9.9687   -1.4913   -0.2036 N.pl3   1  LIG1       -0.3426
     44 H          -9.8774   -2.4954   -0.0858 H       1  LIG1        0.1437
     45 H          -9.6312   -1.2188   -1.1241 H       1  LIG1        0.1437
     46 N         -15.2996   -0.2276    0.7585 N.pl3   1  LIG1       -0.3568
     47 H         -15.6567    0.6186    0.3375 H       1  LIG1        0.1424
     48 H         -15.9208   -1.0097    0.6029 H       1  LIG1        0.1424
@<TRIPOS>BOND
     1    33    32    1
     2    32    31    3
     3     9    10    3
     4    45    43    1
     5    31    26    1
     6    34    27    1
     7    10     1    1
     8     8     2    1
     9    27    26   ar
    10    27    28   ar
    11    26    25   ar
    12     1     2   ar
    13     1     6   ar
    14     2     3   ar
    15    15    12    1
    16     6     5   ar
    17    28    36    1
    18    28    29   ar
    19    43    44    1
    20    43    35    1
    21    20    19   ar
    22    20    16   ar
    23    25    19    1
    24    25    29   ar
    25     3     7    1
    26     3     4   ar
    27     5     4   ar
    28     5    16    1
    29    36    35   ar
    30    36    37   ar
    31    19    18   ar
    32     4    11    1
    33    35    40   ar
    34    16    17   ar
    35    29    30    1
    36    37    41    1
    37    37    38   ar
    38    40    39   ar
    39    11    12    1
    40    47    46    1
    41    18    17   ar
    42    18    22    1
    43    17    21    1
    44    12    13    1
    45    12    14    1
    46    38    39   ar
    47    38    46    1
    48    39    42    1
    49    48    46    1
    50    22    23    3
    51    23    24    1
