@<TRIPOS>MOLECULE
mol_data/opt/m06hf/geoms/mol2/6dl4da-4ah-13fl.out
 52 55 0 0 0
SMALL
GASTEIGER

@<TRIPOS>ATOM
      1 C          -4.1150   -2.1011    1.4098 C.ar    1  LIG1        0.1410
      2 C          -3.0090   -2.4240    0.6337 C.ar    1  LIG1       -0.0223
      3 C          -2.6163   -1.5305   -0.3570 C.ar    1  LIG1       -0.0151
      4 C          -3.3440   -0.3557   -0.5200 C.ar    1  LIG1        0.1461
      5 C          -4.4117   -0.0902    0.3683 C.ar    1  LIG1        0.1151
      6 N          -4.7951   -0.9626    1.2853 N.ar    1  LIG1       -0.2326
      7 H          -1.7745   -1.7582   -0.9951 H       1  LIG1        0.0656
      8 H          -2.4828   -3.3539    0.7975 H       1  LIG1        0.0647
      9 N          -4.9070   -3.7978    3.2180 N.1     1  LIG1       -0.1893
     10 C          -4.5730   -3.0353    2.4295 C.1     1  LIG1        0.1191
     11 O          -3.1254    0.5475   -1.4865 O.3     1  LIG1       -0.4930
     12 C          -1.8561    0.5600   -2.1286 C.3     1  LIG1        0.0789
     13 H          -1.8368    1.4735   -2.7148 H       1  LIG1        0.0660
     14 H          -1.0623    0.5849   -1.3804 H       1  LIG1        0.0660
     15 H          -1.7522   -0.3071   -2.7836 H       1  LIG1        0.0660
     16 C          -4.5854    2.4439    0.2381 C.ar    1  LIG1        0.0616
     17 C          -5.3506    3.6080    0.1897 C.ar    1  LIG1       -0.0360
     18 C          -5.1919    1.1808    0.2868 C.ar    1  LIG1        0.0214
     19 C          -6.7437    3.5341    0.1938 C.ar    1  LIG1       -0.0166
     20 H          -4.8547    4.5680    0.1340 H       1  LIG1        0.0637
     21 C          -6.5829    1.1172    0.3186 C.ar    1  LIG1       -0.0506
     22 C          -7.3487    2.2759    0.2689 C.ar    1  LIG1       -0.0533
     23 H          -7.0543    0.1468    0.3979 H       1  LIG1        0.0625
     24 N          -2.0021    2.7182    0.3318 N.1     1  LIG1       -0.1908
     25 C          -3.1410    2.5814    0.2815 C.1     1  LIG1        0.0998
     26 H          -8.4282    2.2095    0.3134 H       1  LIG1        0.0624
     27 C          -7.2416    5.8951    0.8931 C.ar    1  LIG1       -0.0533
     28 C          -8.0334    7.0341    0.8266 C.ar    1  LIG1       -0.0502
     29 C          -7.5667    4.7754    0.1264 C.ar    1  LIG1       -0.0161
     30 C          -9.1548    7.0899   -0.0053 C.ar    1  LIG1        0.0226
     31 H          -7.8021    7.8982    1.4358 H       1  LIG1        0.0625
     32 C          -8.6699    4.8306   -0.7257 C.ar    1  LIG1       -0.0327
     33 C          -9.4572    5.9760   -0.8108 C.ar    1  LIG1        0.0345
     34 H          -8.8960    3.9833   -1.3639 H       1  LIG1        0.0642
     35 H          -6.3983    5.8614    1.5707 H       1  LIG1        0.0624
     36 N         -10.5705    6.0215   -1.6862 N.pl3   1  LIG1       -0.3574
     37 H         -10.5630    6.8623   -2.2584 H       1  LIG1        0.1423
     38 H         -10.6261    5.2017   -2.2784 H       1  LIG1        0.1423
     39 C          -9.9960    8.2967   -0.0033 C.ar    1  LIG1        0.0940
     40 C          -9.6787    9.5918    0.3457 C.ar    1  LIG1        0.1844
     41 C         -10.8623   10.3657    0.2609 C.ar    1  LIG1        0.1792
     42 C         -11.8826    9.5294   -0.1349 C.ar    1  LIG1        0.0481
     43 N         -11.3407    8.2876   -0.2943 N.ar    1  LIG1       -0.3546
     44 H         -11.8326    7.4388   -0.5351 H       1  LIG1        0.1656
     45 H         -12.9247    9.7209   -0.3179 H       1  LIG1        0.0845
     46 O          -8.4563   10.0682    0.7171 O.3     1  LIG1       -0.5019
     47 H          -8.5366   11.0236    0.8312 H       1  LIG1        0.2924
     48 O         -10.8390   11.7005    0.5324 O.3     1  LIG1       -0.4900
     49 C         -12.0792   12.3609    0.3736 C.3     1  LIG1        0.0790
     50 H         -11.9103   13.4060    0.6189 H       1  LIG1        0.0660
     51 H         -12.4250   12.2705   -0.6599 H       1  LIG1        0.0660
     52 H         -12.8231   11.9340    1.0519 H       1  LIG1        0.0660
@<TRIPOS>BOND
     1    15    12    1
     2    13    12    1
     3    38    36    1
     4    37    36    1
     5    12    11    1
     6    12    14    1
     7    36    33    1
     8    11     4    1
     9    34    32    1
    10     7     3    1
    11    33    32   ar
    12    33    30   ar
    13    32    29   ar
    14    51    49    1
    15    44    43    1
    16     4     3   ar
    17     4     5   ar
    18     3     2   ar
    19    45    42    1
    20    43    42   ar
    21    43    39   ar
    22    42    41   ar
    23    30    39    1
    24    30    28   ar
    25    39    40   ar
    26    29    19    1
    27    29    27   ar
    28    20    17    1
    29    17    19   ar
    30    17    16   ar
    31    19    22   ar
    32    16    25    1
    33    16    18   ar
    34    41    40   ar
    35    41    48    1
    36    22    26    1
    37    22    21   ar
    38    25    24    3
    39    18    21   ar
    40    18     5    1
    41    21    23    1
    42    40    46    1
    43     5     6   ar
    44    49    48    1
    45    49    50    1
    46    49    52    1
    47     2     8    1
    48     2     1   ar
    49    46    47    1
    50    28    27   ar
    51    28    31    1
    52    27    35    1
    53     6     1   ar
    54     1    10    1
    55    10     9    3
