@<TRIPOS>MOLECULE
mol_data/opt/m06hf/geoms/mol2/6dl6ad-12da12ae-6ae-6ii13ad12ef-.out
 88 95 0 0 0
SMALL
GASTEIGER

@<TRIPOS>ATOM
      1 C          -3.8222   -1.8080   -1.2551 C.ar    1  LIG1        0.1410
      2 C          -2.4355   -1.8174   -1.1811 C.ar    1  LIG1       -0.0223
      3 C          -1.7924   -0.6342   -0.8370 C.ar    1  LIG1       -0.0151
      4 C          -2.5572    0.4995   -0.5756 C.ar    1  LIG1        0.1461
      5 C          -3.9670    0.4050   -0.6678 C.ar    1  LIG1        0.1154
      6 N          -4.5589   -0.7295   -1.0069 N.ar    1  LIG1       -0.2326
      7 H          -0.7141   -0.6043   -0.7797 H       1  LIG1        0.0656
      8 H          -1.8826   -2.7217   -1.3903 H       1  LIG1        0.0647
      9 N          -5.0623   -3.9996   -1.9116 N.1     1  LIG1       -0.1893
     10 C          -4.5346   -3.0246   -1.6205 C.1     1  LIG1        0.1191
     11 O          -2.0381    1.6953   -0.2481 O.3     1  LIG1       -0.4930
     12 C          -0.6238    1.8425   -0.2074 C.3     1  LIG1        0.0789
     13 H          -0.4474    2.8824    0.0489 H       1  LIG1        0.0660
     14 H          -0.1958    1.1914    0.5570 H       1  LIG1        0.0660
     15 H          -0.1928    1.6215   -1.1855 H       1  LIG1        0.0660
     16 C          -6.1462    1.5357   -1.0380 C.ar    1  LIG1        0.0377
     17 C          -4.8794    1.5626   -0.4329 C.ar    1  LIG1        0.0233
     18 C          -4.5796    2.6453    0.3847 C.ar    1  LIG1       -0.0314
     19 C          -5.5324    3.6536    0.5390 C.ar    1  LIG1        0.0814
     20 C          -6.7427    3.5561   -0.1540 C.ar    1  LIG1        0.1246
     21 N          -7.0414    2.5033   -0.9117 N.ar    1  LIG1       -0.2499
     22 H          -3.6410    2.7122    0.9125 H       1  LIG1        0.0638
     23 H          -6.4242    0.6860   -1.6484 H       1  LIG1        0.0836
     24 N          -5.0298    5.5544    2.2293 N.1     1  LIG1       -0.1908
     25 C          -5.2674    4.7318    1.4656 C.1     1  LIG1        0.1014
     26 C          -7.7686    4.6159   -0.0858 C.ar    1  LIG1        0.1725
     27 C          -7.7081    5.9791   -0.1791 C.ar    1  LIG1        0.0997
     28 C          -9.0578    6.4563   -0.1040 C.ar    1  LIG1        0.0054
     29 C          -9.8206    5.3386    0.0308 C.ar    1  LIG1        0.1720
     30 O          -9.0463    4.2353    0.0368 O.2     1  LIG1       -0.4488
     31 N          -5.5961    7.3906   -0.6399 N.1     1  LIG1       -0.1907
     32 C          -6.5299    6.7613   -0.4210 C.1     1  LIG1        0.1030
     33 H          -9.3869    7.4791   -0.1617 H       1  LIG1        0.0670
     34 C         -11.2560    5.1452    0.1732 C.ar    1  LIG1        0.1718
     35 C         -12.2834    6.0118    0.3593 C.ar    1  LIG1        0.0033
     36 C         -13.4699    5.2014    0.4077 C.ar    1  LIG1        0.0711
     37 C         -13.0550    3.9033    0.2526 C.ar    1  LIG1        0.1526
     38 O         -11.7160    3.8789    0.1106 O.2     1  LIG1       -0.4504
     39 H         -12.2338    7.0826    0.4573 H       1  LIG1        0.0669
     40 C         -14.8084    5.6805    0.5785 C.1     1  LIG1       -0.0658
     41 C         -15.9236    6.1053    0.7219 C.1     1  LIG1       -0.1138
     42 H         -16.9113    6.4864    0.8460 H       1  LIG1        0.1232
     43 C         -13.0266    1.4533   -0.1277 C.ar    1  LIG1        0.0390
     44 C         -13.7422    2.6106    0.2060 C.ar    1  LIG1        0.0378
     45 C         -15.0961    2.4783    0.4973 C.ar    1  LIG1       -0.0321
     46 C         -15.6838    1.2153    0.4290 C.ar    1  LIG1        0.0513
     47 C         -14.8875    0.1158    0.0564 C.ar    1  LIG1        0.0880
     48 N         -13.5858    0.2545   -0.1996 N.ar    1  LIG1       -0.2530
     49 H         -15.6917    3.3334    0.7859 H       1  LIG1        0.0638
     50 H         -11.9676    1.5128   -0.3464 H       1  LIG1        0.0837
     51 C         -17.0764    1.0714    0.7802 C.1     1  LIG1       -0.0675
     52 C         -18.2345    0.9908    1.0898 C.1     1  LIG1       -0.1138
     53 H         -19.2592    0.9077    1.3708 H       1  LIG1        0.1232
     54 C         -14.8196   -2.3709    0.4904 C.ar    1  LIG1        0.0482
     55 C         -15.4516   -1.2562   -0.0860 C.ar    1  LIG1        0.0228
     56 C         -16.6029   -1.4682   -0.8363 C.ar    1  LIG1       -0.0458
     57 C         -17.1225   -2.7460   -1.0213 C.ar    1  LIG1       -0.0224
     58 C         -16.4225   -3.7894   -0.4056 C.ar    1  LIG1        0.0903
     59 N         -15.3171   -3.5901    0.3218 N.ar    1  LIG1       -0.2495
     60 H         -17.1003   -0.6233   -1.2976 H       1  LIG1        0.0628
     61 C         -13.5650   -2.2660    1.3321 C.3     1  LIG1       -0.0217
     62 H         -13.6355   -1.4302    2.0287 H       1  LIG1        0.0293
     63 H         -12.7023   -2.0969    0.6886 H       1  LIG1        0.0293
     64 H         -13.4482   -3.1996    1.8776 H       1  LIG1        0.0293
     65 C         -18.3679   -2.9607   -1.8526 C.3     1  LIG1       -0.0376
     66 H         -19.1626   -3.4000   -1.2465 H       1  LIG1        0.0278
     67 H         -18.1569   -3.6259   -2.6920 H       1  LIG1        0.0278
     68 H         -18.7166   -2.0060   -2.2436 H       1  LIG1        0.0278
     69 C         -16.8126   -5.2135   -0.4907 C.ar    1  LIG1        0.0670
     70 C         -17.8465   -5.9257   -1.0708 C.ar    1  LIG1       -0.0168
     71 C         -17.6200   -7.2967   -0.7768 C.ar    1  LIG1        0.0807
     72 C         -16.4562   -7.3763   -0.0194 C.ar    1  LIG1        0.1015
     73 N         -15.9994   -6.1146    0.1307 N.ar    1  LIG1       -0.3495
     74 H         -15.1658   -5.8175    0.6256 H       1  LIG1        0.1661
     75 H         -18.6722   -5.5539   -1.6478 H       1  LIG1        0.0652
     76 N         -19.0885   -9.2034   -1.7098 N.1     1  LIG1       -0.1908
     77 C         -18.4216   -8.3780   -1.2703 C.1     1  LIG1        0.1014
     78 C         -15.7208   -8.4923    0.5570 C.ar    1  LIG1        0.1711
     79 C         -16.0853   -9.7209    1.0298 C.ar    1  LIG1        0.1132
     80 C         -14.8583  -10.3237    1.4938 C.ar    1  LIG1        0.1709
     81 C         -13.8720   -9.4209    1.2799 C.ar    1  LIG1        0.1352
     82 O         -14.3966   -8.3035    0.7099 O.2     1  LIG1       -0.4564
     83 H         -12.8130   -9.4258    1.4639 H       1  LIG1        0.1068
     84 C         -17.3947  -10.2809    1.1189 C.1     1  LIG1       -0.0621
     85 C         -18.5009  -10.7415    1.1887 C.1     1  LIG1       -0.1137
     86 H         -19.4887  -11.1389    1.2230 H       1  LIG1        0.1232
     87 O         -14.8216  -11.5611    2.0366 O.3     1  LIG1       -0.5028
     88 H         -13.9255  -11.7894    2.3049 H       1  LIG1        0.2923
@<TRIPOS>BOND
     1    67    65    1
     2    68    65    1
     3     9    10    3
     4    65    66    1
     5    65    57    1
     6    76    77    3
     7    23    16    1
     8    75    70    1
     9    10     1    1
    10     8     2    1
    11    60    56    1
    12    77    71    1
    13     1     2   ar
    14     1     6   ar
    15    15    12    1
    16     2     3   ar
    17    70    71   ar
    18    70    69   ar
    19    16    21   ar
    20    16    17   ar
    21    57    56   ar
    22    57    58   ar
    23     6     5   ar
    24    21    20   ar
    25     3     7    1
    26     3     4   ar
    27    56    55   ar
    28    71    72   ar
    29     5     4   ar
    30     5    17    1
    31    31    32    3
    32     4    11    1
    33    69    58    1
    34    69    73   ar
    35    17    18   ar
    36    32    27    1
    37    58    59   ar
    38    50    43    1
    39    11    12    1
    40    12    13    1
    41    12    14    1
    42    48    43   ar
    43    48    47   ar
    44    27    28   ar
    45    27    26   ar
    46    33    28    1
    47    20    26    1
    48    20    19   ar
    49    43    44   ar
    50    28    29   ar
    51    55    47    1
    52    55    54   ar
    53    26    30   ar
    54    72    73   ar
    55    72    78    1
    56    29    30   ar
    57    29    34    1
    58    47    46   ar
    59    38    34   ar
    60    38    37   ar
    61    73    74    1
    62    34    35   ar
    63    44    37    1
    64    44    45   ar
    65    37    36   ar
    66    59    54   ar
    67    35    36   ar
    68    35    39    1
    69    18    19   ar
    70    18    22    1
    71    36    40    1
    72    46    45   ar
    73    46    51    1
    74    54    61    1
    75    45    49    1
    76    19    25    1
    77    78    82   ar
    78    78    79   ar
    79    40    41    3
    80    63    61    1
    81    82    81   ar
    82    41    42    1
    83    51    52    3
    84    79    84    1
    85    79    80   ar
    86    52    53    1
    87    84    85    3
    88    85    86    1
    89    81    83    1
    90    81    80   ar
    91    61    64    1
    92    61    62    1
    93    25    24    3
    94    80    87    1
    95    87    88    1
