@<TRIPOS>MOLECULE
mol_data/opt/m06hf/geoms/mol2/6dl6aa-13ai6ii.out
 51 54 0 0 0
SMALL
GASTEIGER

@<TRIPOS>ATOM
      1 C          -4.5531   -2.1667   -0.2302 C.ar    1  LIG1        0.1410
      2 C          -3.1944   -2.2889   -0.4774 C.ar    1  LIG1       -0.0223
      3 C          -2.4464   -1.1199   -0.5780 C.ar    1  LIG1       -0.0151
      4 C          -3.0835    0.1059   -0.4192 C.ar    1  LIG1        0.1461
      5 C          -4.4755    0.1282   -0.1441 C.ar    1  LIG1        0.1154
      6 N          -5.1686   -0.9980   -0.0666 N.ar    1  LIG1       -0.2326
      7 H          -1.3870   -1.1761   -0.7828 H       1  LIG1        0.0656
      8 H          -2.7414   -3.2629   -0.5922 H       1  LIG1        0.0647
      9 N          -5.9919   -4.3303   -0.0654 N.1     1  LIG1       -0.1893
     10 C          -5.3771   -3.3647   -0.1334 C.1     1  LIG1        0.1191
     11 O          -2.4554    1.2927   -0.5235 O.3     1  LIG1       -0.4930
     12 C          -1.0852    1.3068   -0.8942 C.3     1  LIG1        0.0789
     13 H          -0.8118    2.3551   -0.9634 H       1  LIG1        0.0660
     14 H          -0.4769    0.8129   -0.1331 H       1  LIG1        0.0660
     15 H          -0.9484    0.8218   -1.8630 H       1  LIG1        0.0660
     16 C          -6.6166    1.3670   -0.2645 C.ar    1  LIG1        0.0376
     17 C          -5.2503    1.3881    0.0374 C.ar    1  LIG1        0.0221
     18 C          -4.7188    2.5824    0.5322 C.ar    1  LIG1       -0.0489
     19 C          -5.5511    3.6786    0.6937 C.ar    1  LIG1       -0.0336
     20 C          -6.8993    3.5571    0.3510 C.ar    1  LIG1        0.0871
     21 N          -7.4149    2.4149   -0.1188 N.ar    1  LIG1       -0.2529
     22 H          -3.6730    2.6476    0.7930 H       1  LIG1        0.0625
     23 H          -7.0650    0.4540   -0.6348 H       1  LIG1        0.0836
     24 H          -5.1710    4.6118    1.0835 H       1  LIG1        0.0640
     25 C          -7.8482    4.6689    0.4871 C.ar    1  LIG1        0.0656
     26 C          -7.7195    5.9853    0.8897 C.ar    1  LIG1       -0.0314
     27 C          -9.0027    6.5852    0.8054 C.ar    1  LIG1       -0.0245
     28 C          -9.8723    5.6023    0.3537 C.ar    1  LIG1        0.0516
     29 N          -9.1541    4.4605    0.1720 N.ar    1  LIG1       -0.3527
     30 H          -9.4823    3.5728   -0.1834 H       1  LIG1        0.1660
     31 H          -6.8134    6.4702    1.2159 H       1  LIG1        0.0642
     32 C          -9.3603    8.0069    1.1664 C.3     1  LIG1       -0.0377
     33 H         -10.4369    8.1011    1.3115 H       1  LIG1        0.0278
     34 H          -9.0538    8.7015    0.3814 H       1  LIG1        0.0278
     35 H          -8.8599    8.2956    2.0913 H       1  LIG1        0.0278
     36 C         -12.2314    4.7778    0.7009 C.ar    1  LIG1        0.0473
     37 C         -11.3270    5.6703    0.0936 C.ar    1  LIG1        0.0198
     38 C         -11.8364    6.6530   -0.7513 C.ar    1  LIG1       -0.0466
     39 C         -13.2065    6.7357   -0.9894 C.ar    1  LIG1       -0.0317
     40 C         -14.0051    5.7893   -0.3532 C.ar    1  LIG1        0.0308
     41 N         -13.5388    4.8471    0.4642 N.ar    1  LIG1       -0.2593
     42 H         -11.1509    7.3450   -1.2293 H       1  LIG1        0.0628
     43 H         -15.0793    5.7959   -0.5054 H       1  LIG1        0.0832
     44 C         -11.7788    3.7036    1.6710 C.3     1  LIG1       -0.0217
     45 H         -10.9385    4.0538    2.2708 H       1  LIG1        0.0293
     46 H         -11.4714    2.8023    1.1354 H       1  LIG1        0.0293
     47 H         -12.6236    3.4514    2.3079 H       1  LIG1        0.0293
     48 C         -13.7947    7.7953   -1.8992 C.3     1  LIG1       -0.0383
     49 H         -14.8704    7.6556   -2.0014 H       1  LIG1        0.0278
     50 H         -13.3407    7.7399   -2.8895 H       1  LIG1        0.0278
     51 H         -13.6106    8.7904   -1.4916 H       1  LIG1        0.0278
@<TRIPOS>BOND
     1    50    48    1
     2    49    48    1
     3    48    51    1
     4    48    39    1
     5    15    12    1
     6    42    38    1
     7    39    38   ar
     8    39    40   ar
     9    13    12    1
    10    12    11    1
    11    12    14    1
    12     7     3    1
    13    38    37   ar
    14    23    16    1
    15     8     2    1
    16     3     2   ar
    17     3     4   ar
    18    11     4    1
    19    43    40    1
    20     2     1   ar
    21     4     5   ar
    22    40    41   ar
    23    16    21   ar
    24    16    17   ar
    25     1    10    1
    26     1     6   ar
    27    30    29    1
    28     5     6   ar
    29     5    17    1
    30    10     9    3
    31    21    20   ar
    32    17    18   ar
    33    37    28    1
    34    37    36   ar
    35    29    28   ar
    36    29    25   ar
    37    20    25    1
    38    20    19   ar
    39    28    27   ar
    40    34    32    1
    41    41    36   ar
    42    25    26   ar
    43    18    19   ar
    44    18    22    1
    45    19    24    1
    46    36    44    1
    47    27    26   ar
    48    27    32    1
    49    26    31    1
    50    46    44    1
    51    32    33    1
    52    32    35    1
    53    44    45    1
    54    44    47    1
