@<TRIPOS>MOLECULE
mol_data/opt/m06hf/geoms/mol2/6dl6dl6dl6dl.out
 58 61 0 0 0
SMALL
GASTEIGER

@<TRIPOS>ATOM
      1 C          -3.5257   -1.3160   -2.2985 C.ar    1  LIG1        0.1410
      2 C          -2.8312   -2.0515   -1.3459 C.ar    1  LIG1       -0.0223
      3 C          -2.8449   -1.6085   -0.0273 C.ar    1  LIG1       -0.0151
      4 C          -3.5513   -0.4489    0.2789 C.ar    1  LIG1        0.1461
      5 C          -4.2355    0.2143   -0.7634 C.ar    1  LIG1        0.1167
      6 N          -4.2133   -0.2129   -2.0124 N.ar    1  LIG1       -0.2326
      7 H          -2.3184   -2.1635    0.7360 H       1  LIG1        0.0656
      8 H          -2.2972   -2.9458   -1.6335 H       1  LIG1        0.0647
      9 N          -3.4564   -2.1035   -4.7775 N.1     1  LIG1       -0.1893
     10 C          -3.5082   -1.7434   -3.6906 C.1     1  LIG1        0.1191
     11 O          -3.6401    0.0968    1.5043 O.3     1  LIG1       -0.4930
     12 C          -3.1016   -0.6241    2.6049 C.3     1  LIG1        0.0789
     13 H          -3.3538   -0.0417    3.4859 H       1  LIG1        0.0660
     14 H          -3.5599   -1.6127    2.6690 H       1  LIG1        0.0660
     15 H          -2.0169   -0.7107    2.5121 H       1  LIG1        0.0660
     16 C          -6.3906    1.4939   -0.8582 C.ar    1  LIG1        0.1502
     17 C          -5.0481    1.4358   -0.4858 C.ar    1  LIG1        0.0433
     18 C          -4.4860    2.5572    0.1216 C.ar    1  LIG1       -0.0058
     19 C          -5.2733    3.6873    0.3047 C.ar    1  LIG1        0.1467
     20 C          -6.6209    3.6383   -0.1084 C.ar    1  LIG1        0.1168
     21 N          -7.1531    2.5674   -0.6670 N.ar    1  LIG1       -0.2319
     22 H          -3.4526    2.5267    0.4363 H       1  LIG1        0.0662
     23 N          -7.5494   -0.5917   -1.8984 N.1     1  LIG1       -0.1893
     24 C          -7.0420    0.3344   -1.4525 C.1     1  LIG1        0.1198
     25 O          -4.8493    4.8399    0.8548 O.3     1  LIG1       -0.4929
     26 C          -3.5457    4.8714    1.4185 C.3     1  LIG1        0.0789
     27 H          -3.4477    5.8524    1.8733 H       1  LIG1        0.0660
     28 H          -3.4445    4.0958    2.1802 H       1  LIG1        0.0660
     29 H          -2.7889    4.7420    0.6417 H       1  LIG1        0.0660
     30 C          -8.6822    4.6888    0.8617 C.ar    1  LIG1        0.1502
     31 C          -7.5198    4.8113    0.1036 C.ar    1  LIG1        0.0433
     32 C          -7.2365    6.0500   -0.4675 C.ar    1  LIG1       -0.0058
     33 C          -8.1306    7.0969   -0.2799 C.ar    1  LIG1        0.1467
     34 C          -9.2807    6.8658    0.5046 C.ar    1  LIG1        0.1168
     35 N          -9.5332    5.6928    1.0558 N.ar    1  LIG1       -0.2319
     36 H          -6.3298    6.1714   -1.0430 H       1  LIG1        0.0662
     37 N          -9.2177    2.4416    2.0608 N.1     1  LIG1       -0.1893
     38 C          -8.9972    3.4299    1.5241 C.1     1  LIG1        0.1198
     39 O          -7.9785    8.3338   -0.7906 O.3     1  LIG1       -0.4929
     40 C          -6.7609    8.6345   -1.4571 C.3     1  LIG1        0.0789
     41 H          -6.8212    9.6869   -1.7168 H       1  LIG1        0.0660
     42 H          -5.9129    8.4616   -0.7911 H       1  LIG1        0.0660
     43 H          -6.6610    8.0325   -2.3633 H       1  LIG1        0.0660
     44 C         -10.6130    8.2903    2.0779 C.ar    1  LIG1        0.1495
     45 C         -10.2579    7.9621    0.7721 C.ar    1  LIG1        0.0433
     46 C         -10.8624    8.6620   -0.2741 C.ar    1  LIG1       -0.0064
     47 C         -11.8048    9.6321    0.0388 C.ar    1  LIG1        0.1388
     48 C         -12.0988    9.8737    1.3925 C.ar    1  LIG1        0.0707
     49 N         -11.5147    9.2275    2.3803 N.ar    1  LIG1       -0.2403
     50 H         -10.5896    8.4307   -1.2937 H       1  LIG1        0.0662
     51 H         -12.8355   10.6276    1.6403 H       1  LIG1        0.0867
     52 N          -9.4092    7.1619    4.0918 N.1     1  LIG1       -0.1893
     53 C          -9.9556    7.6427    3.2060 C.1     1  LIG1        0.1198
     54 O         -12.4804   10.3781   -0.8554 O.3     1  LIG1       -0.4936
     55 C         -12.2346   10.1481   -2.2328 C.3     1  LIG1        0.0789
     56 H         -12.8807   10.8378   -2.7674 H       1  LIG1        0.0660
     57 H         -11.1891   10.3542   -2.4748 H       1  LIG1        0.0660
     58 H         -12.4868    9.1190   -2.4994 H       1  LIG1        0.0660
@<TRIPOS>BOND
     1     9    10    3
     2    10     1    1
     3    56    55    1
     4    58    55    1
     5    57    55    1
     6    43    40    1
     7     1     6   ar
     8     1     2   ar
     9    55    54    1
    10     6     5   ar
    11    23    24    3
    12    41    40    1
    13     8     2    1
    14    40    42    1
    15    40    39    1
    16    24    16    1
    17     2     3   ar
    18    50    46    1
    19    36    32    1
    20    16    21   ar
    21    16    17   ar
    22    54    47    1
    23    39    33    1
    24     5    17    1
    25     5     4   ar
    26    21    20   ar
    27    17    18   ar
    28    32    33   ar
    29    32    31   ar
    30    33    34   ar
    31    46    47   ar
    32    46    45   ar
    33    20    31    1
    34    20    19   ar
    35     3     4   ar
    36     3     7    1
    37    47    48   ar
    38    31    30   ar
    39    18    19   ar
    40    18    22    1
    41     4    11    1
    42    19    25    1
    43    34    45    1
    44    34    35   ar
    45    29    26    1
    46    45    44   ar
    47    25    26    1
    48    30    35   ar
    49    30    38    1
    50    48    51    1
    51    48    49   ar
    52    26    27    1
    53    26    28    1
    54    11    12    1
    55    38    37    3
    56    44    49   ar
    57    44    53    1
    58    15    12    1
    59    12    14    1
    60    12    13    1
    61    53    52    3
