@<TRIPOS>MOLECULE
mol_data/opt/m06hf/geoms/mol2/6dl6dl6dl.out
 44 46 0 0 0
SMALL
GASTEIGER

@<TRIPOS>ATOM
      1 C          -4.2140   -1.7421   -1.7166 C.ar    1  LIG1        0.1410
      2 C          -3.0966   -2.1610   -1.0047 C.ar    1  LIG1       -0.0223
      3 C          -2.6271   -1.3555    0.0273 C.ar    1  LIG1       -0.0151
      4 C          -3.2965   -0.1658    0.2989 C.ar    1  LIG1        0.1461
      5 C          -4.4286    0.1613   -0.4787 C.ar    1  LIG1        0.1167
      6 N          -4.8643   -0.6099   -1.4584 N.ar    1  LIG1       -0.2326
      7 H          -1.7630   -1.6585    0.6009 H       1  LIG1        0.0656
      8 H          -2.6115   -3.0936   -1.2562 H       1  LIG1        0.0647
      9 N          -5.0585   -3.2396   -3.6697 N.1     1  LIG1       -0.1893
     10 C          -4.7124   -2.5633   -2.8110 C.1     1  LIG1        0.1191
     11 O          -2.9486    0.7086    1.2603 O.3     1  LIG1       -0.4930
     12 C          -1.9511    0.3191    2.1955 C.3     1  LIG1        0.0789
     13 H          -1.9123    1.1175    2.9303 H       1  LIG1        0.0660
     14 H          -2.2328   -0.6183    2.6790 H       1  LIG1        0.0660
     15 H          -0.9818    0.2183    1.7030 H       1  LIG1        0.0660
     16 C          -6.5848    1.3477    0.0115 C.ar    1  LIG1        0.1502
     17 C          -5.2084    1.4040   -0.2025 C.ar    1  LIG1        0.0433
     18 C          -4.5929    2.6546   -0.1786 C.ar    1  LIG1       -0.0058
     19 C          -5.3723    3.7847    0.0317 C.ar    1  LIG1        0.1467
     20 C          -6.7581    3.6166    0.2358 C.ar    1  LIG1        0.1168
     21 N          -7.3316    2.4274    0.2280 N.ar    1  LIG1       -0.2319
     22 H          -3.5239    2.7198   -0.3210 H       1  LIG1        0.0662
     23 N          -7.8113   -0.9466    0.0990 N.1     1  LIG1       -0.1893
     24 C          -7.2774    0.0661    0.0477 C.1     1  LIG1        0.1198
     25 O          -4.9008    5.0461    0.0646 O.3     1  LIG1       -0.4929
     26 C          -3.4934    5.2336    0.0275 C.3     1  LIG1        0.0789
     27 H          -3.3372    6.3018    0.1453 H       1  LIG1        0.0660
     28 H          -3.0185    4.6933    0.8492 H       1  LIG1        0.0660
     29 H          -3.0873    4.9010   -0.9305 H       1  LIG1        0.0660
     30 C          -8.4446    4.8274    1.6384 C.ar    1  LIG1        0.1495
     31 C          -7.6392    4.7909    0.5037 C.ar    1  LIG1        0.0433
     32 C          -7.7016    5.8644   -0.3873 C.ar    1  LIG1       -0.0064
     33 C          -8.5810    6.9020   -0.1098 C.ar    1  LIG1        0.1388
     34 C          -9.3580    6.8313    1.0606 C.ar    1  LIG1        0.0707
     35 N          -9.2854    5.8283    1.9110 N.ar    1  LIG1       -0.2403
     36 H          -7.0732    5.8594   -1.2664 H       1  LIG1        0.0662
     37 H         -10.0465    7.6378    1.2793 H       1  LIG1        0.0867
     38 N          -8.2615    2.9565    3.4399 N.1     1  LIG1       -0.1893
     39 C          -8.3596    3.7686    2.6363 C.1     1  LIG1        0.1198
     40 O          -8.7657    7.9924   -0.8778 O.3     1  LIG1       -0.4936
     41 C          -8.0248    8.0867   -2.0831 C.3     1  LIG1        0.0789
     42 H          -8.3299    9.0209   -2.5445 H       1  LIG1        0.0660
     43 H          -6.9529    8.1082   -1.8727 H       1  LIG1        0.0660
     44 H          -8.2624    7.2498   -2.7438 H       1  LIG1        0.0660
@<TRIPOS>BOND
     1     9    10    3
     2    10     1    1
     3    44    41    1
     4    42    41    1
     5    41    43    1
     6    41    40    1
     7     1     6   ar
     8     1     2   ar
     9     6     5   ar
    10    36    32    1
    11     8     2    1
    12     2     3   ar
    13    29    26    1
    14    40    33    1
    15     5    17    1
    16     5     4   ar
    17    32    33   ar
    18    32    31   ar
    19    22    18    1
    20    17    18   ar
    21    17    16   ar
    22    18    19   ar
    23    33    34   ar
    24    16    24    1
    25    16    21   ar
    26     3     4   ar
    27     3     7    1
    28    26    25    1
    29    26    27    1
    30    26    28    1
    31    19    25    1
    32    19    20   ar
    33    24    23    3
    34    21    20   ar
    35    20    31    1
    36     4    11    1
    37    31    30   ar
    38    34    37    1
    39    34    35   ar
    40    11    12    1
    41    30    35   ar
    42    30    39    1
    43    15    12    1
    44    12    14    1
    45    12    13    1
    46    39    38    3
