@<TRIPOS>MOLECULE
mol_data/opt/m06hf/geoms/mol2/6dl6dl6dl6dl-.out
 58 61 0 0 0
SMALL
GASTEIGER

@<TRIPOS>ATOM
      1 C          -3.7954   -1.8771    1.3739 C.ar    1  LIG1        0.1410
      2 C          -2.8246   -2.2051    0.4357 C.ar    1  LIG1       -0.0223
      3 C          -2.5867   -1.3201   -0.6105 C.ar    1  LIG1       -0.0151
      4 C          -3.3308   -0.1452   -0.6701 C.ar    1  LIG1        0.1461
      5 C          -4.3038    0.0847    0.3273 C.ar    1  LIG1        0.1167
      6 N          -4.5182   -0.7607    1.3187 N.ar    1  LIG1       -0.2326
      7 H          -1.8411   -1.5530   -1.3568 H       1  LIG1        0.0656
      8 H          -2.2731   -3.1301    0.5263 H       1  LIG1        0.0647
      9 N          -4.1954   -3.5166    3.3542 N.1     1  LIG1       -0.1893
     10 C          -4.0456   -2.7797    2.4888 C.1     1  LIG1        0.1191
     11 O          -3.1999    0.7997   -1.6184 O.3     1  LIG1       -0.4930
     12 C          -2.3529    0.5284   -2.7273 C.3     1  LIG1        0.0789
     13 H          -2.4580    1.3812   -3.3908 H       1  LIG1        0.0660
     14 H          -1.3145    0.4340   -2.4017 H       1  LIG1        0.0660
     15 H          -2.6777   -0.3812   -3.2356 H       1  LIG1        0.0660
     16 C          -6.5551    1.1934    0.3275 C.ar    1  LIG1        0.1502
     17 C          -5.1656    1.3031    0.2829 C.ar    1  LIG1        0.0433
     18 C          -4.6113    2.5805    0.2192 C.ar    1  LIG1       -0.0058
     19 C          -5.4568    3.6830    0.2210 C.ar    1  LIG1        0.1467
     20 C          -6.8491    3.4592    0.2613 C.ar    1  LIG1        0.1168
     21 N          -7.3680    2.2465    0.3105 N.ar    1  LIG1       -0.2319
     22 H          -3.5377    2.6899    0.1655 H       1  LIG1        0.0662
     23 N          -7.7044   -1.1416    0.3582 N.1     1  LIG1       -0.1893
     24 C          -7.1988   -0.1132    0.3559 C.1     1  LIG1        0.1198
     25 O          -5.0481    4.9642    0.1775 O.3     1  LIG1       -0.4929
     26 C          -3.6658    5.2242   -0.0239 C.3     1  LIG1        0.0789
     27 H          -3.5789    6.3043   -0.0906 H       1  LIG1        0.0660
     28 H          -3.0787    4.8542    0.8197 H       1  LIG1        0.0660
     29 H          -3.3271    4.7630   -0.9538 H       1  LIG1        0.0660
     30 C          -8.8257    4.6424   -0.7356 C.ar    1  LIG1        0.1502
     31 C          -7.8031    4.6056    0.2128 C.ar    1  LIG1        0.0433
     32 C          -7.7175    5.6565    1.1233 C.ar    1  LIG1       -0.0058
     33 C          -8.6516    6.6829    1.0564 C.ar    1  LIG1        0.1467
     34 C          -9.6101    6.6509    0.0227 C.ar    1  LIG1        0.1168
     35 N          -9.6992    5.6425   -0.8269 N.ar    1  LIG1       -0.2319
     36 H          -6.9389    5.6513    1.8729 H       1  LIG1        0.0662
     37 N          -9.0181    2.8032   -2.5679 N.1     1  LIG1       -0.1893
     38 C          -8.9431    3.5985   -1.7457 C.1     1  LIG1        0.1198
     39 O          -8.7263    7.7059    1.9208 O.3     1  LIG1       -0.4929
     40 C          -7.5660    8.0324    2.6774 C.3     1  LIG1        0.0789
     41 H          -7.7829    8.9902    3.1399 H       1  LIG1        0.0660
     42 H          -7.3881    7.2770    3.4454 H       1  LIG1        0.0660
     43 H          -6.7063    8.1287    2.0122 H       1  LIG1        0.0660
     44 C         -10.1998    9.1134   -0.2194 C.ar    1  LIG1        0.1495
     45 C         -10.5872    7.7646   -0.1555 C.ar    1  LIG1        0.0433
     46 C         -11.9294    7.4772   -0.3324 C.ar    1  LIG1       -0.0064
     47 C         -12.8325    8.5232   -0.5288 C.ar    1  LIG1        0.1388
     48 C         -12.3420    9.8339   -0.5516 C.ar    1  LIG1        0.0707
     49 N         -11.0497   10.1096   -0.4106 N.ar    1  LIG1       -0.2403
     50 H         -12.2860    6.4557   -0.3253 H       1  LIG1        0.0662
     51 H         -12.9947   10.6833   -0.6988 H       1  LIG1        0.0867
     52 N          -7.6805    9.7675   -0.0780 N.1     1  LIG1       -0.1893
     53 C          -8.7921    9.4882   -0.1308 C.1     1  LIG1        0.1198
     54 O         -14.1265    8.1912   -0.6833 O.3     1  LIG1       -0.4936
     55 C         -15.0682    9.2321   -0.8929 C.3     1  LIG1        0.0789
     56 H         -16.0297    8.7399   -1.0032 H       1  LIG1        0.0660
     57 H         -15.0919    9.9057   -0.0334 H       1  LIG1        0.0660
     58 H         -14.8294    9.7877   -1.8025 H       1  LIG1        0.0660
@<TRIPOS>BOND
     1    13    12    1
     2    15    12    1
     3    12    14    1
     4    12    11    1
     5    37    38    3
     6    58    55    1
     7    38    30    1
     8    11     4    1
     9     7     3    1
    10    56    55    1
    11    29    26    1
    12    55    54    1
    13    55    57    1
    14    35    30   ar
    15    35    34   ar
    16    30    31   ar
    17    51    48    1
    18    54    47    1
    19     4     3   ar
    20     4     5   ar
    21     3     2   ar
    22    48    47   ar
    23    48    49   ar
    24    47    46   ar
    25    49    44   ar
    26    46    50    1
    27    46    45   ar
    28    44    45   ar
    29    44    53    1
    30    45    34    1
    31    53    52    3
    32    27    26    1
    33    26    25    1
    34    26    28    1
    35    34    33   ar
    36    22    18    1
    37    25    19    1
    38    31    20    1
    39    31    32   ar
    40    18    19   ar
    41    18    17   ar
    42    19    20   ar
    43    20    21   ar
    44    17     5    1
    45    17    16   ar
    46    21    16   ar
    47     5     6   ar
    48    16    24    1
    49    24    23    3
    50     2     8    1
    51     2     1   ar
    52    33    32   ar
    53    33    39    1
    54    32    36    1
    55     6     1   ar
    56     1    10    1
    57    39    40    1
    58    43    40    1
    59    10     9    3
    60    40    41    1
    61    40    42    1
