@<TRIPOS>MOLECULE
mol_data/opt/m06hf/geoms/mol2/6dl6dl.out
 30 31 0 0 0
SMALL
GASTEIGER

@<TRIPOS>ATOM
      1 C          -4.5364   -1.9979    0.8413 C.ar    1  LIG1        0.1410
      2 C          -3.1971   -2.1800    0.5224 C.ar    1  LIG1       -0.0223
      3 C          -2.4999   -1.1141   -0.0371 C.ar    1  LIG1       -0.0151
      4 C          -3.1745    0.0838   -0.2518 C.ar    1  LIG1        0.1461
      5 C          -4.5407    0.1613    0.0991 C.ar    1  LIG1        0.1167
      6 N          -5.1902   -0.8568    0.6343 N.ar    1  LIG1       -0.2326
      7 H          -1.4578   -1.2281   -0.2984 H       1  LIG1        0.0656
      8 H          -2.7167   -3.1293    0.7104 H       1  LIG1        0.0647
      9 N          -5.8288   -3.9764    1.9303 N.1     1  LIG1       -0.1893
     10 C          -5.2847   -3.0918    1.4454 C.1     1  LIG1        0.1191
     11 O          -2.6194    1.1903   -0.7809 O.3     1  LIG1       -0.4930
     12 C          -1.2871    1.1081   -1.2669 C.3     1  LIG1        0.0789
     13 H          -1.0780    2.0754   -1.7129 H       1  LIG1        0.0660
     14 H          -0.5909    0.9173   -0.4472 H       1  LIG1        0.0660
     15 H          -1.2066    0.3247   -2.0233 H       1  LIG1        0.0660
     16 C          -6.5398    1.3643   -0.8183 C.ar    1  LIG1        0.1495
     17 C          -5.3236    1.4095   -0.1406 C.ar    1  LIG1        0.0433
     18 C          -4.8761    2.6459    0.3313 C.ar    1  LIG1       -0.0064
     19 C          -5.6738    3.7620    0.1207 C.ar    1  LIG1        0.1388
     20 C          -6.8911    3.6002   -0.5644 C.ar    1  LIG1        0.0707
     21 N          -7.3061    2.4385   -1.0248 N.ar    1  LIG1       -0.2403
     22 H          -3.9274    2.7042    0.8453 H       1  LIG1        0.0662
     23 H          -7.5158    4.4690   -0.7291 H       1  LIG1        0.0867
     24 N          -7.3952   -0.8490   -1.8895 N.1     1  LIG1       -0.1893
     25 C          -7.0233    0.1177   -1.3977 C.1     1  LIG1        0.1198
     26 O          -5.3822    5.0142    0.5213 O.3     1  LIG1       -0.4936
     27 C          -4.1624    5.2221    1.2126 C.3     1  LIG1        0.0789
     28 H          -4.1257    6.2842    1.4354 H       1  LIG1        0.0660
     29 H          -4.1460    4.6476    2.1416 H       1  LIG1        0.0660
     30 H          -3.3137    4.9442    0.5830 H       1  LIG1        0.0660
@<TRIPOS>BOND
     1    15    12    1
     2    24    25    3
     3    13    12    1
     4    25    16    1
     5    12    11    1
     6    12    14    1
     7    21    16   ar
     8    21    20   ar
     9    16    17   ar
    10    11     4    1
    11    23    20    1
    12    20    19   ar
    13     7     3    1
    14     4     3   ar
    15     4     5   ar
    16    17     5    1
    17    17    18   ar
    18     3     2   ar
    19     5     6   ar
    20    19    18   ar
    21    19    26    1
    22    18    22    1
    23    26    27    1
    24     2     8    1
    25     2     1   ar
    26    30    27    1
    27     6     1   ar
    28     1    10    1
    29    27    28    1
    30    27    29    1
    31    10     9    3
