@<TRIPOS>MOLECULE
mol_data/opt/m06hf/geoms/mol2/6dl6dl-.out
 30 31 0 0 0
SMALL
GASTEIGER

@<TRIPOS>ATOM
      1 C          -4.5031   -2.0729    0.5793 C.ar    1  LIG1        0.1410
      2 C          -3.1688   -2.1780    0.2055 C.ar    1  LIG1       -0.0223
      3 C          -2.5191   -1.0366   -0.2512 C.ar    1  LIG1       -0.0151
      4 C          -3.2324    0.1571   -0.3088 C.ar    1  LIG1        0.1461
      5 C          -4.5635    0.1693    0.1633 C.ar    1  LIG1        0.1167
      6 N          -5.1823   -0.9273    0.5653 N.ar    1  LIG1       -0.2326
      7 H          -1.4877   -1.0858   -0.5698 H       1  LIG1        0.0656
      8 H          -2.6618   -3.1307    0.2616 H       1  LIG1        0.0647
      9 N          -5.7598   -4.2098    1.3716 N.1     1  LIG1       -0.1893
     10 C          -5.2213   -3.2576    1.0287 C.1     1  LIG1        0.1191
     11 O          -2.7599    1.3080   -0.8068 O.3     1  LIG1       -0.4930
     12 C          -1.3492    1.4891   -0.8776 C.3     1  LIG1        0.0789
     13 H          -1.2048    2.5356   -1.1279 H       1  LIG1        0.0660
     14 H          -0.9008    1.2764    0.0939 H       1  LIG1        0.0660
     15 H          -0.9231    0.8563   -1.6586 H       1  LIG1        0.0660
     16 C          -4.8716    2.6202    0.7828 C.ar    1  LIG1        0.1495
     17 C          -5.3542    1.4348    0.2036 C.ar    1  LIG1        0.0433
     18 C          -6.6480    1.4458   -0.2879 C.ar    1  LIG1       -0.0064
     19 C          -7.3943    2.6233   -0.2240 C.ar    1  LIG1        0.1388
     20 C          -6.8066    3.7558    0.3500 C.ar    1  LIG1        0.0707
     21 N          -5.5750    3.7390    0.8502 N.ar    1  LIG1       -0.2403
     22 H          -7.0882    0.5544   -0.7147 H       1  LIG1        0.0662
     23 H          -7.3352    4.6959    0.4241 H       1  LIG1        0.0867
     24 N          -2.5213    2.6639    1.9086 N.1     1  LIG1       -0.1893
     25 C          -3.5534    2.6579    1.4072 C.1     1  LIG1        0.1198
     26 O          -8.6413    2.5825   -0.7261 O.3     1  LIG1       -0.4936
     27 C          -9.4298    3.7612   -0.6676 C.3     1  LIG1        0.0789
     28 H         -10.3849    3.4970   -1.1108 H       1  LIG1        0.0660
     29 H          -9.5753    4.0737    0.3690 H       1  LIG1        0.0660
     30 H          -8.9622    4.5643   -1.2416 H       1  LIG1        0.0660
@<TRIPOS>BOND
     1    15    12    1
     2    30    27    1
     3    13    12    1
     4    28    27    1
     5    12    11    1
     6    12    14    1
     7    11     4    1
     8    26    27    1
     9    26    19    1
    10    22    18    1
    11    27    29    1
    12     7     3    1
    13     4     3   ar
    14     4     5   ar
    15    18    19   ar
    16    18    17   ar
    17     3     2   ar
    18    19    20   ar
    19     5    17    1
    20     5     6   ar
    21    17    16   ar
    22     2     8    1
    23     2     1   ar
    24    20    23    1
    25    20    21   ar
    26     6     1   ar
    27     1    10    1
    28    16    21   ar
    29    16    25    1
    30    10     9    3
    31    25    24    3
