@<TRIPOS>MOLECULE
mol_data/opt/m06hf/geoms/mol2/6ea13ee12lf-4ef-6lh-13dh6ll-13il-.out
 108 115 0 0 0
SMALL
GASTEIGER

@<TRIPOS>ATOM
      1 C          -4.1478   -1.8514   -0.6047 C.ar    1  LIG1        0.1139
      2 C          -2.8601   -1.9582   -1.1341 C.ar    1  LIG1       -0.0278
      3 C          -2.2453   -0.7995   -1.5948 C.ar    1  LIG1       -0.0571
      4 C          -2.9196    0.4110   -1.5153 C.ar    1  LIG1       -0.0341
      5 C          -4.2061    0.4091   -0.9684 C.ar    1  LIG1        0.0897
      6 N          -4.8060   -0.6967   -0.5257 N.ar    1  LIG1       -0.2369
      7 H          -1.2479   -0.8411   -2.0121 H       1  LIG1        0.0619
      8 H          -2.3750   -2.9222   -1.1730 H       1  LIG1        0.0645
      9 C          -4.8223   -3.0365   -0.1082 C.1     1  LIG1       -0.0498
     10 C          -5.3540   -4.0329    0.2984 C.1     1  LIG1       -0.1124
     11 H          -5.8314   -4.9116    0.6659 H       1  LIG1        0.1232
     12 H          -2.4813    1.3363   -1.8598 H       1  LIG1        0.0639
     13 C          -5.0149    1.6323   -0.8323 C.ar    1  LIG1        0.0823
     14 C          -4.7982    2.9676   -1.1372 C.ar    1  LIG1        0.0675
     15 C          -5.9821    3.6805   -0.7645 C.ar    1  LIG1        0.0691
     16 C          -6.8627    2.7444   -0.2418 C.ar    1  LIG1        0.1032
     17 N          -6.2580    1.5315   -0.2992 N.ar    1  LIG1       -0.3485
     18 H          -6.6395    0.6472    0.0162 H       1  LIG1        0.1661
     19 C          -3.6337    3.5552   -1.7253 C.1     1  LIG1       -0.0662
     20 C          -2.6632    4.0656   -2.2193 C.1     1  LIG1       -0.1138
     21 H          -1.8116    4.5339   -2.6557 H       1  LIG1        0.1232
     22 C          -6.1993    5.0800   -0.9607 C.1     1  LIG1       -0.0662
     23 C          -6.3399    6.2562   -1.1651 C.1     1  LIG1       -0.1138
     24 H          -6.4551    7.3002   -1.3436 H       1  LIG1        0.1232
     25 C          -8.2117    2.8607    0.2845 C.ar    1  LIG1        0.1982
     26 C          -8.8920    3.8519    0.9203 C.ar    1  LIG1        0.2098
     27 C         -10.1852    3.3024    1.2499 C.ar    1  LIG1        0.2061
     28 C         -10.1797    2.0083    0.8116 C.ar    1  LIG1        0.1821
     29 O          -8.9747    1.7418    0.2291 O.2     1  LIG1       -0.4457
     30 O          -8.4408    5.0833    1.2314 O.3     1  LIG1       -0.4884
     31 C          -9.1860    6.1421    0.6223 C.3     1  LIG1        0.0791
     32 H          -8.7205    7.0642    0.9607 H       1  LIG1        0.0660
     33 H          -9.1110    6.0600   -0.4629 H       1  LIG1        0.0660
     34 H         -10.2263    6.0974    0.9447 H       1  LIG1        0.0660
     35 O         -11.1554    4.0418    1.8251 O.3     1  LIG1       -0.5008
     36 H         -11.7227    3.4788    2.3756 H       1  LIG1        0.2924
     37 C         -12.1728    0.7446    1.6995 C.ar    1  LIG1        0.0362
     38 C         -13.1322   -0.2592    1.5151 C.ar    1  LIG1       -0.0343
     39 C         -11.1895    0.9492    0.7204 C.ar    1  LIG1        0.0399
     40 C         -13.1225   -1.0754    0.3956 C.ar    1  LIG1        0.0299
     41 H         -13.8797   -0.4188    2.2814 H       1  LIG1        0.0637
     42 C         -11.1713    0.1218   -0.4059 C.ar    1  LIG1       -0.0076
     43 C         -12.1231   -0.8749   -0.5726 C.ar    1  LIG1        0.1254
     44 H         -10.4149    0.2873   -1.1637 H       1  LIG1        0.0662
     45 C         -12.1842    1.4953    2.9303 C.1     1  LIG1       -0.0689
     46 C         -12.2035    2.1050    3.9703 C.1     1  LIG1       -0.1139
     47 H         -12.2022    2.6171    4.9060 H       1  LIG1        0.1232
     48 O         -12.1620   -1.6558   -1.6743 O.3     1  LIG1       -0.5061
     49 H         -11.4336   -1.4473   -2.2688 H       1  LIG1        0.2922
     50 C         -13.8032   -3.4897    0.0710 C.ar    1  LIG1        0.2232
     51 C         -14.1581   -2.1240    0.2046 C.ar    1  LIG1        0.0489
     52 C         -15.5038   -1.8345    0.2149 C.ar    1  LIG1       -0.0260
     53 C         -16.4710   -2.8395    0.0242 C.ar    1  LIG1        0.0532
     54 C         -15.9930   -4.1235   -0.2066 C.ar    1  LIG1        0.1128
     55 N         -14.6831   -4.4365   -0.1298 N.ar    1  LIG1       -0.2090
     56 H         -15.8421   -0.8174    0.3762 H       1  LIG1        0.0644
     57 O         -12.5036   -3.8015    0.1755 O.3     1  LIG1       -0.4792
     58 C         -12.1561   -5.1662   -0.0121 C.3     1  LIG1        0.0804
     59 H         -11.0727   -5.2003    0.0631 H       1  LIG1        0.0660
     60 H         -12.6155   -5.7799    0.7645 H       1  LIG1        0.0660
     61 H         -12.4921   -5.5130   -0.9894 H       1  LIG1        0.0660
     62 N         -17.8345   -2.5029    0.1505 N.pl3   1  LIG1       -0.3563
     63 H         -18.1912   -1.9527   -0.6246 H       1  LIG1        0.1424
     64 H         -18.4284   -3.3122    0.2870 H       1  LIG1        0.1424
     65 C         -16.8618   -5.2788   -0.5118 C.ar    1  LIG1        0.0867
     66 C         -18.0666   -5.4298   -1.1991 C.ar    1  LIG1        0.0997
     67 C         -18.3702   -6.8201   -1.2445 C.ar    1  LIG1        0.0686
     68 C         -17.3443   -7.4753   -0.5840 C.ar    1  LIG1        0.0744
     69 N         -16.4546   -6.5166   -0.1782 N.ar    1  LIG1       -0.3503
     70 H         -15.5593   -6.7174    0.2524 H       1  LIG1        0.1660
     71 N         -19.4896   -3.6735   -2.4413 N.1     1  LIG1       -0.1907
     72 C         -18.8357   -4.4346   -1.8794 C.1     1  LIG1        0.1032
     73 N         -19.4997   -7.4121   -1.8590 N.pl3   1  LIG1       -0.3553
     74 H         -20.2049   -6.7130   -2.0709 H       1  LIG1        0.1424
     75 H         -19.2421   -7.8833   -2.7230 H       1  LIG1        0.1424
     76 C         -15.9663   -9.4700    0.1349 C.ar    1  LIG1        0.2247
     77 C         -17.1782   -8.9052   -0.2955 C.ar    1  LIG1        0.0651
     78 C         -18.2512   -9.7854   -0.4335 C.ar    1  LIG1       -0.0035
     79 C         -18.0941  -11.1409   -0.1634 C.ar    1  LIG1        0.1483
     80 C         -16.8498  -11.5977    0.2898 C.ar    1  LIG1        0.1327
     81 N         -15.8228  -10.7455    0.4086 N.ar    1  LIG1       -0.2072
     82 H         -19.1993   -9.3796   -0.7617 H       1  LIG1        0.0663
     83 O         -14.8917   -8.6523    0.2898 O.3     1  LIG1       -0.4792
     84 C         -13.6741   -9.2670    0.7016 C.3     1  LIG1        0.0804
     85 H         -12.9553   -8.4567    0.7856 H       1  LIG1        0.0660
     86 H         -13.8088   -9.7680    1.6590 H       1  LIG1        0.0660
     87 H         -13.3487   -9.9895   -0.0470 H       1  LIG1        0.0660
     88 O         -19.0710  -12.0604   -0.3413 O.3     1  LIG1       -0.4929
     89 C         -20.3640  -11.5999   -0.6881 C.3     1  LIG1        0.0789
     90 H         -20.9893  -12.4882   -0.7328 H       1  LIG1        0.0660
     91 H         -20.7459  -10.9120    0.0703 H       1  LIG1        0.0660
     92 H         -20.3515  -11.1067   -1.6635 H       1  LIG1        0.0660
     93 C         -16.5433  -13.0015    0.6110 C.ar    1  LIG1        0.0752
     94 C         -17.2764  -14.1234    0.9776 C.ar    1  LIG1        0.0181
     95 C         -16.3150  -15.1495    1.1901 C.ar    1  LIG1        0.1408
     96 C         -15.0550  -14.6429    0.9607 C.ar    1  LIG1        0.0447
     97 N         -15.2172  -13.3414    0.6180 N.ar    1  LIG1       -0.3561
     98 H         -14.4991  -12.6571    0.4342 H       1  LIG1        0.1655
     99 H         -14.0902  -15.1124    1.0354 H       1  LIG1        0.0844
    100 C         -18.7480  -14.3299    1.2452 C.3     1  LIG1       -0.0342
    101 H         -18.8494  -15.2311    1.8518 H       1  LIG1        0.0279
    102 H         -19.3056  -14.4535    0.3160 H       1  LIG1        0.0279
    103 H         -19.1689  -13.4839    1.7861 H       1  LIG1        0.0279
    104 O         -16.6018  -16.4285    1.5856 O.3     1  LIG1       -0.4933
    105 C         -16.9781  -17.2753    0.5067 C.3     1  LIG1        0.0789
    106 H         -17.1907  -18.2519    0.9360 H       1  LIG1        0.0660
    107 H         -17.8677  -16.8851    0.0068 H       1  LIG1        0.0660
    108 H         -16.1619  -17.3507   -0.2153 H       1  LIG1        0.0660
@<TRIPOS>BOND
     1    75    73    1
     2    21    20    1
     3    71    72    3
     4    49    48    1
     5    20    19    3
     6    74    73    1
     7     7     3    1
     8    72    66    1
     9    12     4    1
    10    73    67    1
    11    19    14    1
    12    48    43    1
    13    92    89    1
    14     3     4   ar
    15     3     2   ar
    16     4     5   ar
    17    24    23    1
    18    67    66   ar
    19    67    68   ar
    20    66    65   ar
    21     8     2    1
    22    23    22    3
    23    44    42    1
    24    14    13   ar
    25    14    15   ar
    26     2     1   ar
    27    61    58    1
    28     5    13    1
    29     5     6   ar
    30    22    15    1
    31    13    17   ar
    32    15    16   ar
    33    82    78    1
    34    90    89    1
    35    89    88    1
    36    89    91    1
    37    63    62    1
    38     1     6   ar
    39     1     9    1
    40    68    77    1
    41    68    69   ar
    42    43    42   ar
    43    43    40   ar
    44    65    54    1
    45    65    69   ar
    46    33    31    1
    47    78    77   ar
    48    78    79   ar
    49    42    39   ar
    50    88    79    1
    51    17    16   ar
    52    17    18    1
    53    77    76   ar
    54    16    25    1
    55   108   105    1
    56    54    55   ar
    57    54    53   ar
    58    69    70    1
    59    79    80   ar
    60    55    50   ar
    61     9    10    3
    62    87    84    1
    63    58    59    1
    64    58    57    1
    65    58    60    1
    66   107   105    1
    67    53    62    1
    68    53    52   ar
    69    50    57    1
    70    50    51   ar
    71    76    83    1
    72    76    81   ar
    73    62    64    1
    74    51    52   ar
    75    51    40    1
    76    52    56    1
    77    29    25   ar
    78    29    28   ar
    79    25    26   ar
    80    83    84    1
    81    80    81   ar
    82    80    93    1
    83    10    11    1
    84   102   100    1
    85    40    38   ar
    86    98    97    1
    87   105   106    1
    88   105   104    1
    89    93    97   ar
    90    93    94   ar
    91    97    96   ar
    92    31    34    1
    93    31    32    1
    94    31    30    1
    95    84    85    1
    96    84    86    1
    97    39    28    1
    98    39    37   ar
    99    28    27   ar
   100    26    30    1
   101    26    27   ar
   102    96    99    1
   103    96    95   ar
   104    94    95   ar
   105    94   100    1
   106    95   104    1
   107   100   103    1
   108   100   101    1
   109    27    35    1
   110    38    37   ar
   111    38    41    1
   112    37    45    1
   113    35    36    1
   114    45    46    3
   115    46    47    1
