@<TRIPOS>MOLECULE
mol_data/opt/m06hf/geoms/mol2/6ea13ae13de4fl-.out
 49 52 0 0 0
SMALL
GASTEIGER

@<TRIPOS>ATOM
      1 C          -4.4041   -1.7924    1.4252 C.ar    1  LIG1        0.1139
      2 C          -3.0298   -1.9355    1.2281 C.ar    1  LIG1       -0.0278
      3 C          -2.3587   -0.9285    0.5420 C.ar    1  LIG1       -0.0571
      4 C          -3.0691    0.1699    0.0810 C.ar    1  LIG1       -0.0342
      5 C          -4.4437    0.2188    0.3278 C.ar    1  LIG1        0.0885
      6 N          -5.0943   -0.7403    0.9855 N.ar    1  LIG1       -0.2370
      7 H          -1.2928   -0.9999    0.3716 H       1  LIG1        0.0619
      8 H          -2.5218   -2.8093    1.6082 H       1  LIG1        0.0645
      9 C          -5.1425   -2.8197    2.1351 C.1     1  LIG1       -0.0498
     10 C          -5.7323   -3.6846    2.7223 C.1     1  LIG1       -0.1124
     11 H          -6.2643   -4.4480    3.2416 H       1  LIG1        0.1232
     12 H          -2.5812    0.9749   -0.4496 H       1  LIG1        0.0639
     13 C          -5.2839    1.3439   -0.1163 C.ar    1  LIG1        0.0666
     14 C          -5.0304    2.4918   -0.8368 C.ar    1  LIG1       -0.0188
     15 C          -6.2569    3.2049   -0.9284 C.ar    1  LIG1        0.0520
     16 C          -7.2123    2.4596   -0.2493 C.ar    1  LIG1        0.0802
     17 N          -6.6028    1.3411    0.2232 N.ar    1  LIG1       -0.3508
     18 H          -6.9929    0.6212    0.8193 H       1  LIG1        0.1660
     19 H          -4.0925    2.8017   -1.2650 H       1  LIG1        0.0652
     20 C          -6.5004    4.4359   -1.6182 C.1     1  LIG1       -0.0675
     21 C          -6.7149    5.4692   -2.1922 C.1     1  LIG1       -0.1138
     22 H          -6.9132    6.3945   -2.6815 H       1  LIG1        0.1232
     23 C          -8.6358    2.7097   -0.0448 C.ar    1  LIG1        0.0833
     24 C          -9.3113    3.8488    0.3435 C.ar    1  LIG1        0.0944
     25 C         -10.7020    3.5202    0.4106 C.ar    1  LIG1        0.0680
     26 C         -10.8255    2.1868    0.0671 C.ar    1  LIG1        0.0674
     27 N          -9.5696    1.7284   -0.2029 N.ar    1  LIG1       -0.3509
     28 H          -9.3684    0.7853   -0.5043 H       1  LIG1        0.1660
     29 N          -8.2977    6.1429    0.9466 N.1     1  LIG1       -0.1908
     30 C          -8.7340    5.1178    0.6711 C.1     1  LIG1        0.1026
     31 C         -11.7780    4.3908    0.7665 C.1     1  LIG1       -0.0662
     32 C         -12.7025    5.0885    1.0925 C.1     1  LIG1       -0.1138
     33 H         -13.5139    5.7240    1.3637 H       1  LIG1        0.1232
     34 C         -12.9799    1.2232    0.9424 C.ar    1  LIG1        0.1262
     35 C         -14.0166    0.3087    0.7968 C.ar    1  LIG1       -0.0161
     36 C         -12.0007    1.3012   -0.0620 C.ar    1  LIG1        0.0444
     37 C         -14.1056   -0.5218   -0.3159 C.ar    1  LIG1       -0.0165
     38 H         -14.7532    0.2574    1.5870 H       1  LIG1        0.0655
     39 C         -12.1022    0.4845   -1.1879 C.ar    1  LIG1       -0.0073
     40 C         -13.1428   -0.4312   -1.3215 C.ar    1  LIG1        0.1209
     41 H         -11.3840    0.5612   -1.9950 H       1  LIG1        0.0662
     42 H         -14.9272   -1.2201   -0.3880 H       1  LIG1        0.0655
     43 O         -12.9349    1.9422    2.0965 O.3     1  LIG1       -0.5061
     44 H         -12.6560    2.8551    1.9377 H       1  LIG1        0.2922
     45 O         -13.1400   -1.1781   -2.4582 O.3     1  LIG1       -0.4951
     46 C         -14.1712   -2.1316   -2.6206 C.3     1  LIG1        0.0788
     47 H         -13.9805   -2.6174   -3.5734 H       1  LIG1        0.0660
     48 H         -14.1434   -2.8722   -1.8168 H       1  LIG1        0.0660
     49 H         -15.1496   -1.6447   -2.6439 H       1  LIG1        0.0660
@<TRIPOS>BOND
     1    47    46    1
     2    22    21    1
     3    49    46    1
     4    46    45    1
     5    46    48    1
     6    45    40    1
     7    21    20    3
     8    41    39    1
     9    20    15    1
    10    40    39   ar
    11    40    37   ar
    12    19    14    1
    13    39    36   ar
    14    15    14   ar
    15    15    16   ar
    16    14    13   ar
    17    28    27    1
    18    12     4    1
    19    42    37    1
    20    37    35   ar
    21    16    23    1
    22    16    17   ar
    23    27    23   ar
    24    27    26   ar
    25    13    17   ar
    26    13     5    1
    27    36    26    1
    28    36    34   ar
    29    23    24   ar
    30    26    25   ar
    31     4     5   ar
    32     4     3   ar
    33    17    18    1
    34     5     6   ar
    35    24    25   ar
    36    24    30    1
    37     7     3    1
    38    25    31    1
    39     3     2   ar
    40    30    29    3
    41    31    32    3
    42    35    34   ar
    43    35    38    1
    44    34    43    1
    45     6     1   ar
    46    32    33    1
    47     2     1   ar
    48     2     8    1
    49     1     9    1
    50    44    43    1
    51     9    10    3
    52    10    11    1
