@<TRIPOS>MOLECULE
mol_data/opt/m06hf/geoms/mol2/6ea13eh13aa-4ea-.out
 45 48 0 0 0
SMALL
GASTEIGER

@<TRIPOS>ATOM
      1 C          -4.3674   -2.0962    0.1517 C.ar    1  LIG1        0.1139
      2 C          -2.9909   -2.1397   -0.0787 C.ar    1  LIG1       -0.0278
      3 C          -2.3274   -0.9361   -0.2922 C.ar    1  LIG1       -0.0571
      4 C          -3.0430    0.2521   -0.2716 C.ar    1  LIG1       -0.0341
      5 C          -4.4198    0.1869   -0.0328 C.ar    1  LIG1        0.0897
      6 N          -5.0652   -0.9624    0.1747 N.ar    1  LIG1       -0.2369
      7 H          -1.2607   -0.9262   -0.4734 H       1  LIG1        0.0619
      8 H          -2.4776   -3.0898   -0.0859 H       1  LIG1        0.0645
      9 C          -5.0979   -3.3303    0.3768 C.1     1  LIG1       -0.0498
     10 C          -5.6759   -4.3668    0.5572 C.1     1  LIG1       -0.1124
     11 H          -6.1966   -5.2819    0.7202 H       1  LIG1        0.1232
     12 H          -2.5685    1.2095   -0.4325 H       1  LIG1        0.0639
     13 C          -5.2707    1.3847    0.0146 C.ar    1  LIG1        0.0829
     14 C          -5.0239    2.7441   -0.1646 C.ar    1  LIG1        0.0727
     15 C          -6.2641    3.4223    0.0220 C.ar    1  LIG1        0.0679
     16 C          -7.2151    2.4596    0.3036 C.ar    1  LIG1        0.0855
     17 N          -6.5841    1.2414    0.2894 N.ar    1  LIG1       -0.3494
     18 H          -6.9749    0.3396    0.5287 H       1  LIG1        0.1661
     19 C          -3.7970    3.3957   -0.5023 C.1     1  LIG1       -0.0656
     20 C          -2.7909    3.9892   -0.7944 C.1     1  LIG1       -0.1138
     21 H          -1.9001    4.5152   -1.0483 H       1  LIG1        0.1232
     22 N          -6.4628    4.8028   -0.0415 N.pl3   1  LIG1       -0.3553
     23 H          -5.7466    5.2709   -0.5837 H       1  LIG1        0.1424
     24 H          -7.3950    5.0471   -0.3574 H       1  LIG1        0.1424
     25 C          -8.6401    2.6336    0.5502 C.ar    1  LIG1        0.0652
     26 C          -9.3122    3.6556    1.1910 C.ar    1  LIG1       -0.0343
     27 C         -10.7004    3.3687    1.1029 C.ar    1  LIG1       -0.0357
     28 C         -10.8358    2.1775    0.4217 C.ar    1  LIG1        0.0481
     29 N          -9.5744    1.7412    0.1012 N.ar    1  LIG1       -0.3529
     30 H          -9.3835    0.9878   -0.5424 H       1  LIG1        0.1659
     31 H          -8.8386    4.4834    1.6927 H       1  LIG1        0.0639
     32 H         -11.5126    3.9426    1.5145 H       1  LIG1        0.0639
     33 C         -13.2251    1.9397   -0.3510 C.ar    1  LIG1        0.0338
     34 C         -14.3141    1.1223   -0.6723 C.ar    1  LIG1       -0.0457
     35 C         -12.0170    1.3635    0.0805 C.ar    1  LIG1        0.0137
     36 C         -14.2159   -0.2596   -0.5799 C.ar    1  LIG1       -0.0606
     37 H         -15.2307    1.5908   -1.0033 H       1  LIG1        0.0630
     38 C         -11.9407   -0.0303    0.1792 C.ar    1  LIG1       -0.0515
     39 C         -13.0224   -0.8367   -0.1524 C.ar    1  LIG1       -0.0611
     40 H         -11.0282   -0.4789    0.5518 H       1  LIG1        0.0624
     41 H         -15.0642   -0.8801   -0.8352 H       1  LIG1        0.0618
     42 C         -13.3796    3.3690   -0.4983 C.1     1  LIG1       -0.0690
     43 C         -13.5598    4.5487   -0.6425 C.1     1  LIG1       -0.1139
     44 H         -13.7064    5.5959   -0.7714 H       1  LIG1        0.1232
     45 H         -12.9375   -1.9118   -0.0627 H       1  LIG1        0.0618
@<TRIPOS>BOND
     1    21    20    1
     2    37    34    1
     3    41    36    1
     4    20    19    3
     5    44    43    1
     6    34    36   ar
     7    34    33   ar
     8    43    42    3
     9    23    22    1
    10    36    39   ar
    11    30    29    1
    12    19    14    1
    13    42    33    1
    14     7     3    1
    15    12     4    1
    16    24    22    1
    17    33    35   ar
    18     3     4   ar
    19     3     2   ar
    20     4     5   ar
    21    14    13   ar
    22    14    15   ar
    23    39    45    1
    24    39    38   ar
    25     8     2    1
    26     2     1   ar
    27    22    15    1
    28     5    13    1
    29     5     6   ar
    30    13    17   ar
    31    15    16   ar
    32    35    38   ar
    33    35    28    1
    34    29    28   ar
    35    29    25   ar
    36     1     6   ar
    37     1     9    1
    38    38    40    1
    39    17    16   ar
    40    17    18    1
    41    16    25    1
    42     9    10    3
    43    28    27   ar
    44    25    26   ar
    45    10    11    1
    46    27    26   ar
    47    27    32    1
    48    26    31    1
