@<TRIPOS>MOLECULE
mol_data/opt/m06hf/geoms/mol2/6ea6ea-6ea-6ea-.out
 46 49 0 0 0
SMALL
GASTEIGER

@<TRIPOS>ATOM
      1 C          -4.2602   -2.0420    0.7415 C.ar    1  LIG1        0.1138
      2 C          -3.4247   -2.5148   -0.2739 C.ar    1  LIG1       -0.0278
      3 C          -3.1951   -1.6878   -1.3649 C.ar    1  LIG1       -0.0571
      4 C          -3.7835   -0.4293   -1.4000 C.ar    1  LIG1       -0.0355
      5 C          -4.5844   -0.0382   -0.3225 C.ar    1  LIG1        0.0750
      6 N          -4.8266   -0.8374    0.7157 N.ar    1  LIG1       -0.2383
      7 H          -2.5711   -2.0205   -2.1838 H       1  LIG1        0.0619
      8 H          -2.9912   -3.5012   -0.1950 H       1  LIG1        0.0645
      9 C          -4.5434   -2.8860    1.8878 C.1     1  LIG1       -0.0498
     10 C          -4.7599   -3.6068    2.8228 C.1     1  LIG1       -0.1124
     11 H          -4.9581   -4.2362    3.6592 H       1  LIG1        0.1232
     12 H          -3.6357    0.2342   -2.2384 H       1  LIG1        0.0639
     13 C          -4.7971    2.4746   -0.8204 C.ar    1  LIG1        0.1230
     14 C          -5.2933    1.2779   -0.2791 C.ar    1  LIG1        0.0342
     15 C          -6.5301    1.3375    0.3659 C.ar    1  LIG1       -0.0479
     16 C          -7.2258    2.5329    0.4161 C.ar    1  LIG1       -0.0349
     17 C          -6.6576    3.6582   -0.1911 C.ar    1  LIG1        0.0751
     18 N          -5.4719    3.6252   -0.7844 N.ar    1  LIG1       -0.2377
     19 H          -6.9125    0.4382    0.8308 H       1  LIG1        0.0626
     20 C          -3.4799    2.5675   -1.4267 C.1     1  LIG1       -0.0491
     21 C          -2.3908    2.6834   -1.9203 C.1     1  LIG1       -0.1124
     22 H          -1.4235    2.7990   -2.3527 H       1  LIG1        0.1232
     23 H          -8.1763    2.6097    0.9256 H       1  LIG1        0.0639
     24 C          -6.7757    6.1638    0.1927 C.ar    1  LIG1        0.1230
     25 C          -7.3868    4.9603   -0.2016 C.ar    1  LIG1        0.0342
     26 C          -8.7181    5.0161   -0.6029 C.ar    1  LIG1       -0.0479
     27 C          -9.3820    6.2348   -0.6131 C.ar    1  LIG1       -0.0349
     28 C          -8.6790    7.3740   -0.2176 C.ar    1  LIG1        0.0751
     29 N          -7.4098    7.3346    0.1772 N.ar    1  LIG1       -0.2377
     30 H          -9.2222    4.1098   -0.9158 H       1  LIG1        0.0626
     31 C          -5.4116    6.1836    0.6835 C.1     1  LIG1       -0.0491
     32 C          -4.2907    6.2026    1.1113 C.1     1  LIG1       -0.1124
     33 H          -3.2917    6.2171    1.4809 H       1  LIG1        0.1232
     34 H         -10.4203    6.3087   -0.9061 H       1  LIG1        0.0639
     35 C          -9.3297    9.5647    0.8781 C.ar    1  LIG1        0.1222
     36 C          -9.3435    8.7111   -0.2377 C.ar    1  LIG1        0.0342
     37 C         -10.0140    9.1463   -1.3778 C.ar    1  LIG1       -0.0485
     38 C         -10.6230   10.3942   -1.3791 C.ar    1  LIG1       -0.0429
     39 C         -10.5377   11.1655   -0.2234 C.ar    1  LIG1        0.0290
     40 N          -9.9147   10.7635    0.8792 N.ar    1  LIG1       -0.2460
     41 H         -10.0355    8.5159   -2.2585 H       1  LIG1        0.0625
     42 H         -10.9919   12.1480   -0.1795 H       1  LIG1        0.0830
     43 C          -8.7020    9.1573    2.1201 C.1     1  LIG1       -0.0491
     44 C          -8.2017    8.8225    3.1583 C.1     1  LIG1       -0.1124
     45 H          -7.7430    8.5309    4.0745 H       1  LIG1        0.1232
     46 H         -11.1429   10.7660   -2.2507 H       1  LIG1        0.0633
@<TRIPOS>BOND
     1    22    21    1
     2    41    37    1
     3    46    38    1
     4    12     4    1
     5     7     3    1
     6    21    20    3
     7    20    13    1
     8     4     3   ar
     9     4     5   ar
    10    38    37   ar
    11    38    39   ar
    12    37    36   ar
    13     3     2   ar
    14    30    26    1
    15    34    27    1
    16    13    18   ar
    17    13    14   ar
    18    18    17   ar
    19    27    26   ar
    20    27    28   ar
    21    26    25   ar
    22     5    14    1
    23     5     6   ar
    24    14    15   ar
    25     2     8    1
    26     2     1   ar
    27    36    28    1
    28    36    35   ar
    29    39    42    1
    30    39    40   ar
    31    28    29   ar
    32    25    17    1
    33    25    24   ar
    34    17    16   ar
    35    29    24   ar
    36    24    31    1
    37    15    16   ar
    38    15    19    1
    39    16    23    1
    40    31    32    3
    41     6     1   ar
    42     1     9    1
    43    35    40   ar
    44    35    43    1
    45    32    33    1
    46     9    10    3
    47    43    44    3
    48    10    11    1
    49    44    45    1
