@<TRIPOS>MOLECULE
mol_data/opt/m06hf/geoms/mol2/6ea6ea-6ea6ea-.out
 46 49 0 0 0
SMALL
GASTEIGER

@<TRIPOS>ATOM
      1 C          -4.4329   -2.3160   -0.0002 C.ar    1  LIG1        0.1138
      2 C          -3.0400   -2.4338   -0.0006 C.ar    1  LIG1       -0.0278
      3 C          -2.2987   -1.2629   -0.0010 C.ar    1  LIG1       -0.0571
      4 C          -2.9515   -0.0343   -0.0009 C.ar    1  LIG1       -0.0355
      5 C          -4.3491   -0.0154   -0.0004 C.ar    1  LIG1        0.0750
      6 N          -5.0599   -1.1453   -0.0000 N.ar    1  LIG1       -0.2383
      7 H          -1.2175   -1.2983   -0.0014 H       1  LIG1        0.0619
      8 H          -2.5814   -3.4120   -0.0007 H       1  LIG1        0.0645
      9 C          -5.2565   -3.5114    0.0003 C.1     1  LIG1       -0.0498
     10 C          -5.9109   -4.5176    0.0006 C.1     1  LIG1       -0.1124
     11 H          -6.5025   -5.4037    0.0007 H       1  LIG1        0.1232
     12 H          -2.3877    0.8827   -0.0012 H       1  LIG1        0.0639
     13 C          -4.7307    2.5619   -0.0000 C.ar    1  LIG1        0.1230
     14 C          -5.1879    1.2323   -0.0002 C.ar    1  LIG1        0.0342
     15 C          -6.5764    1.0716   -0.0002 C.ar    1  LIG1       -0.0479
     16 C          -7.4297    2.1608   -0.0001 C.ar    1  LIG1       -0.0349
     17 C          -6.8740    3.4440    0.0000 C.ar    1  LIG1        0.0751
     18 N          -5.5547    3.6088    0.0001 N.ar    1  LIG1       -0.2377
     19 H          -6.9657    0.0628   -0.0003 H       1  LIG1        0.0626
     20 C          -3.3310    2.9595    0.0001 C.1     1  LIG1       -0.0491
     21 C          -2.2031    3.3736    0.0002 C.1     1  LIG1       -0.1124
     22 H          -1.2037    3.7445    0.0005 H       1  LIG1        0.1232
     23 H          -8.4961    2.0155   -0.0001 H       1  LIG1        0.0639
     24 C          -9.0540    4.8641    0.0001 C.ar    1  LIG1        0.1230
     25 C          -7.6540    4.7271    0.0002 C.ar    1  LIG1        0.0342
     26 C          -6.9299    5.9226    0.0004 C.ar    1  LIG1       -0.0479
     27 C          -7.5662    7.1517    0.0005 C.ar    1  LIG1       -0.0349
     28 C          -8.9642    7.1805    0.0004 C.ar    1  LIG1        0.0751
     29 N          -9.6626    6.0487    0.0002 N.ar    1  LIG1       -0.2377
     30 H          -5.8506    5.8588    0.0004 H       1  LIG1        0.0626
     31 C          -9.9948    3.7546   -0.0001 C.1     1  LIG1       -0.0491
     32 C         -10.8335    2.8938   -0.0002 C.1     1  LIG1       -0.1124
     33 H         -11.5777    2.1304   -0.0005 H       1  LIG1        0.1232
     34 H          -6.9903    8.0609    0.0006 H       1  LIG1        0.0639
     35 C          -9.3469    9.7530    0.0005 C.ar    1  LIG1        0.1222
     36 C          -9.8084    8.4250    0.0005 C.ar    1  LIG1        0.0342
     37 C         -11.1981    8.2483    0.0006 C.ar    1  LIG1       -0.0485
     38 C         -12.0447    9.3414    0.0007 C.ar    1  LIG1       -0.0429
     39 C         -11.4752   10.6137    0.0007 C.ar    1  LIG1        0.0290
     40 N         -10.1666   10.8121    0.0007 N.ar    1  LIG1       -0.2460
     41 H         -11.5769    7.2355    0.0006 H       1  LIG1        0.0625
     42 H         -12.0935   11.5032    0.0008 H       1  LIG1        0.0830
     43 C          -7.9449   10.1396    0.0004 C.1     1  LIG1       -0.0491
     44 C          -6.8138   10.5453    0.0004 C.1     1  LIG1       -0.1124
     45 H          -5.8123   10.9099    0.0003 H       1  LIG1        0.1232
     46 H         -13.1185    9.2187    0.0008 H       1  LIG1        0.0633
@<TRIPOS>BOND
     1     7     3    1
     2    12     4    1
     3     3     4   ar
     4     3     2   ar
     5     4     5   ar
     6     8     2    1
     7     2     1   ar
     8    33    32    1
     9     5    14    1
    10     5     6   ar
    11    19    15    1
    12    32    31    3
    13    15    14   ar
    14    15    16   ar
    15    14    13   ar
    16     1     6   ar
    17     1     9    1
    18    23    16    1
    19    16    17   ar
    20    31    24    1
    21    13    18   ar
    22    13    20    1
    23    17    18   ar
    24    17    25    1
    25    24    25   ar
    26    24    29   ar
    27    20    21    3
    28    25    26   ar
    29    29    28   ar
    30    21    22    1
    31     9    10    3
    32    45    44    1
    33    26    30    1
    34    26    27   ar
    35    44    43    3
    36    28    27   ar
    37    28    36    1
    38    43    35    1
    39    27    34    1
    40    36    35   ar
    41    36    37   ar
    42    35    40   ar
    43    41    37    1
    44    10    11    1
    45    37    38   ar
    46    40    39   ar
    47    38    39   ar
    48    38    46    1
    49    39    42    1
