@<TRIPOS>MOLECULE
mol_data/opt/m06hf/geoms/mol2/6ea6ea6ea6ea-.out
 46 49 0 0 0
SMALL
GASTEIGER

@<TRIPOS>ATOM
      1 C          -4.0736   -2.0682   -0.7731 C.ar    1  LIG1        0.1138
      2 C          -3.0998   -2.3290    0.1957 C.ar    1  LIG1       -0.0278
      3 C          -2.9159   -1.3974    1.2079 C.ar    1  LIG1       -0.0571
      4 C          -3.7042   -0.2527    1.2171 C.ar    1  LIG1       -0.0355
      5 C          -4.6486   -0.0852    0.2010 C.ar    1  LIG1        0.0750
      6 N          -4.8288   -0.9711   -0.7747 N.ar    1  LIG1       -0.2383
      7 H          -2.1783   -1.5637    1.9816 H       1  LIG1        0.0619
      8 H          -2.5189   -3.2382    0.1389 H       1  LIG1        0.0645
      9 C          -4.2885   -3.0232   -1.8447 C.1     1  LIG1       -0.0498
     10 C          -4.4454   -3.8310   -2.7185 C.1     1  LIG1       -0.1124
     11 H          -4.5973   -4.5368   -3.5020 H       1  LIG1        0.1232
     12 H          -3.6135    0.4893    1.9988 H       1  LIG1        0.0639
     13 C          -6.9031    1.0642    0.0558 C.ar    1  LIG1        0.1230
     14 C          -5.5032    1.1390    0.1649 C.ar    1  LIG1        0.0342
     15 C          -4.9308    2.4047    0.2462 C.ar    1  LIG1       -0.0479
     16 C          -5.7430    3.5296    0.2061 C.ar    1  LIG1       -0.0349
     17 C          -7.1209    3.3458    0.0799 C.ar    1  LIG1        0.0751
     18 N          -7.6826    2.1425    0.0105 N.ar    1  LIG1       -0.2377
     19 H          -3.8554    2.5023    0.3284 H       1  LIG1        0.0626
     20 C          -7.5824   -0.2164    0.0239 C.1     1  LIG1       -0.0491
     21 C          -8.1541   -1.2711    0.0201 C.1     1  LIG1       -0.1124
     22 H          -8.6621   -2.2073    0.0035 H       1  LIG1        0.1232
     23 H          -5.3302    4.5264    0.2820 H       1  LIG1        0.0639
     24 C          -9.1820    4.6362    0.7989 C.ar    1  LIG1        0.1230
     25 C          -8.0330    4.5237   -0.0016 C.ar    1  LIG1        0.0342
     26 C          -7.7731    5.5584   -0.8962 C.ar    1  LIG1       -0.0479
     27 C          -8.6315    6.6454   -0.9705 C.ar    1  LIG1       -0.0349
     28 C          -9.7410    6.6687   -0.1220 C.ar    1  LIG1        0.0751
     29 N         -10.0053    5.6804    0.7306 N.ar    1  LIG1       -0.2377
     30 H          -6.9142    5.4927   -1.5530 H       1  LIG1        0.0626
     31 C          -9.5155    3.6231    1.7813 C.1     1  LIG1       -0.0491
     32 C          -9.7895    2.7982    2.6083 C.1     1  LIG1       -0.1124
     33 H         -10.0353    2.0566    3.3324 H       1  LIG1        0.1232
     34 H          -8.4611    7.4463   -1.6739 H       1  LIG1        0.0639
     35 C         -10.4585    9.1179   -0.3783 C.ar    1  LIG1        0.1222
     36 C         -10.7554    7.7660   -0.1507 C.ar    1  LIG1        0.0342
     37 C         -12.0917    7.4338    0.0841 C.ar    1  LIG1       -0.0485
     38 C         -13.0607    8.4223    0.0447 C.ar    1  LIG1       -0.0429
     39 C         -12.6574    9.7309   -0.2212 C.ar    1  LIG1        0.0290
     40 N         -11.3920   10.0740   -0.4171 N.ar    1  LIG1       -0.2460
     41 H         -12.3359    6.4012    0.2969 H       1  LIG1        0.0625
     42 H         -13.3818   10.5347   -0.2701 H       1  LIG1        0.0830
     43 C          -9.0947    9.5931   -0.5441 C.1     1  LIG1       -0.0491
     44 C          -7.9781   10.0178   -0.6686 C.1     1  LIG1       -0.1124
     45 H          -6.9901   10.4040   -0.7694 H       1  LIG1        0.1232
     46 H         -14.1037    8.1949    0.2137 H       1  LIG1        0.0633
@<TRIPOS>BOND
     1    11    10    1
     2    10     9    3
     3     9     1    1
     4    34    27    1
     5    30    26    1
     6    27    26   ar
     7    27    28   ar
     8    26    25   ar
     9     6     1   ar
    10     6     5   ar
    11     1     2   ar
    12    45    44    1
    13    44    43    3
    14    43    35    1
    15    40    35   ar
    16    40    39   ar
    17    35    36   ar
    18    42    39    1
    19    39    38   ar
    20    36    28    1
    21    36    37   ar
    22    28    29   ar
    23    25    17    1
    24    25    24   ar
    25    22    21    1
    26    18    13   ar
    27    18    17   ar
    28    21    20    3
    29    20    13    1
    30    38    37   ar
    31    38    46    1
    32    13    14   ar
    33    17    16   ar
    34    37    41    1
    35     8     2    1
    36    14     5    1
    37    14    15   ar
    38     2     3   ar
    39     5     4   ar
    40    16    15   ar
    41    16    23    1
    42    15    19    1
    43    29    24   ar
    44    24    31    1
    45     3     4   ar
    46     3     7    1
    47     4    12    1
    48    31    32    3
    49    32    33    1
