@<TRIPOS>MOLECULE
mol_data/opt/m06hf/geoms/mol2/6ea6ea-4ea6ea.out
 47 50 0 0 0
SMALL
GASTEIGER

@<TRIPOS>ATOM
      1 C          -4.4551   -2.2201   -0.1627 C.ar    1  LIG1        0.1138
      2 C          -3.1030   -2.3414    0.1669 C.ar    1  LIG1       -0.0278
      3 C          -2.4030   -1.1840    0.4803 C.ar    1  LIG1       -0.0571
      4 C          -3.0600    0.0394    0.4386 C.ar    1  LIG1       -0.0355
      5 C          -4.4101    0.0582    0.0741 C.ar    1  LIG1        0.0750
      6 N          -5.0929   -1.0515   -0.2035 N.ar    1  LIG1       -0.2383
      7 H          -1.3593   -1.2336    0.7615 H       1  LIG1        0.0619
      8 H          -2.6411   -3.3179    0.1819 H       1  LIG1        0.0645
      9 C          -5.2246   -3.4099   -0.4778 C.1     1  LIG1       -0.0498
     10 C          -5.8323   -4.4122   -0.7364 C.1     1  LIG1       -0.1124
     11 H          -6.3820   -5.2943   -0.9703 H       1  LIG1        0.1232
     12 H          -2.5507    0.9583    0.6864 H       1  LIG1        0.0639
     13 C          -4.7262    2.5634   -0.3884 C.ar    1  LIG1        0.1230
     14 C          -5.2142    1.3175    0.0353 C.ar    1  LIG1        0.0342
     15 C          -6.5532    1.2578    0.4250 C.ar    1  LIG1       -0.0479
     16 C          -7.3240    2.4071    0.4175 C.ar    1  LIG1       -0.0350
     17 C          -6.7335    3.6038   -0.0042 C.ar    1  LIG1        0.0736
     18 N          -5.4702    3.6708   -0.4052 N.ar    1  LIG1       -0.2377
     19 H          -6.9606    0.3036    0.7320 H       1  LIG1        0.0626
     20 C          -3.3737    2.7308   -0.8932 C.1     1  LIG1       -0.0491
     21 C          -2.2649    2.8911   -1.3271 C.1     1  LIG1       -0.1124
     22 H          -1.2867    3.0399   -1.7233 H       1  LIG1        0.1232
     23 H          -8.3539    2.3955    0.7470 H       1  LIG1        0.0639
     24 C          -7.0274    6.0646    0.4924 C.ar    1  LIG1        0.0344
     25 C          -7.8027    7.2257    0.4310 C.ar    1  LIG1       -0.0379
     26 C          -7.5283    4.8680   -0.0421 C.ar    1  LIG1        0.0158
     27 C          -9.0685    7.2143   -0.1517 C.ar    1  LIG1       -0.0140
     28 H          -7.4123    8.1362    0.8675 H       1  LIG1        0.0636
     29 C          -8.7996    4.8629   -0.6167 C.ar    1  LIG1       -0.0508
     30 C          -9.5664    6.0196   -0.6755 C.ar    1  LIG1       -0.0533
     31 H          -9.1774    3.9452   -1.0502 H       1  LIG1        0.0625
     32 C          -5.7442    6.1341    1.1538 C.1     1  LIG1       -0.0690
     33 C          -4.6981    6.2476    1.7326 C.1     1  LIG1       -0.1139
     34 H          -3.7614    6.3349    2.2316 H       1  LIG1        0.1232
     35 H         -10.5437    6.0018   -1.1391 H       1  LIG1        0.0624
     36 C         -11.1805    8.5916    0.1832 C.ar    1  LIG1        0.1208
     37 C          -9.8456    8.4836   -0.2427 C.ar    1  LIG1        0.0160
     38 C          -9.2489    9.6339   -0.7609 C.ar    1  LIG1       -0.0499
     39 C          -9.9773   10.8119   -0.8406 C.ar    1  LIG1       -0.0429
     40 C         -11.2977   10.8007   -0.3961 C.ar    1  LIG1        0.0290
     41 N         -11.8865    9.7217    0.1046 N.ar    1  LIG1       -0.2461
     42 H          -8.2254    9.5872   -1.1120 H       1  LIG1        0.0625
     43 H         -11.9067   11.6953   -0.4456 H       1  LIG1        0.0830
     44 C         -11.8701    7.4555    0.7688 C.1     1  LIG1       -0.0492
     45 C         -12.4468    6.5238    1.2598 C.1     1  LIG1       -0.1124
     46 H         -12.9625    5.7029    1.7014 H       1  LIG1        0.1232
     47 H          -9.5411   11.7156   -1.2423 H       1  LIG1        0.0633
@<TRIPOS>BOND
     1    22    21    1
     2    21    20    3
     3    47    39    1
     4    35    30    1
     5    42    38    1
     6    31    29    1
     7    11    10    1
     8    20    13    1
     9    39    38   ar
    10    39    40   ar
    11    38    37   ar
    12    10     9    3
    13    30    29   ar
    14    30    27   ar
    15    29    26   ar
    16     9     1    1
    17    43    40    1
    18    18    13   ar
    19    18    17   ar
    20    40    41   ar
    21    13    14   ar
    22    37    27    1
    23    37    36   ar
    24     6     1   ar
    25     6     5   ar
    26     1     2   ar
    27    27    25   ar
    28    26    17    1
    29    26    24   ar
    30    17    16   ar
    31    14     5    1
    32    14    15   ar
    33     5     4   ar
    34    41    36   ar
    35     2     8    1
    36     2     3   ar
    37    36    44    1
    38    16    15   ar
    39    16    23    1
    40    15    19    1
    41    25    24   ar
    42    25    28    1
    43     4     3   ar
    44     4    12    1
    45     3     7    1
    46    24    32    1
    47    44    45    3
    48    32    33    3
    49    45    46    1
    50    33    34    1
