@<TRIPOS>MOLECULE
mol_data/opt/m06hf/geoms/mol2/6ea6ea.out
 24 25 0 0 0
SMALL
GASTEIGER

@<TRIPOS>ATOM
      1 C          -4.4229   -2.0533   -0.3786 C.ar    1  LIG1        0.1138
      2 C          -3.1685   -2.0968    0.2376 C.ar    1  LIG1       -0.0278
      3 C          -2.6661   -0.9247    0.7853 C.ar    1  LIG1       -0.0571
      4 C          -3.4264    0.2352    0.6977 C.ar    1  LIG1       -0.0355
      5 C          -4.6667    0.1745    0.0560 C.ar    1  LIG1        0.0750
      6 N          -5.1553   -0.9445   -0.4726 N.ar    1  LIG1       -0.2383
      7 H          -1.7027   -0.9165    1.2778 H       1  LIG1        0.0619
      8 H          -2.6237   -3.0289    0.2781 H       1  LIG1        0.0645
      9 C          -4.9729   -3.2656   -0.9565 C.1     1  LIG1       -0.0498
     10 C          -5.3966   -4.2871   -1.4242 C.1     1  LIG1       -0.1124
     11 H          -5.7850   -5.1860   -1.8452 H       1  LIG1        0.1232
     12 H          -3.0877    1.1674    1.1289 H       1  LIG1        0.0639
     13 C          -6.8397    1.4516    0.3284 C.ar    1  LIG1        0.1222
     14 C          -5.4971    1.4090   -0.0810 C.ar    1  LIG1        0.0342
     15 C          -4.9470    2.5689   -0.6207 C.ar    1  LIG1       -0.0485
     16 C          -5.7355    3.7047   -0.7471 C.ar    1  LIG1       -0.0429
     17 C          -7.0589    3.6345   -0.3197 C.ar    1  LIG1        0.0290
     18 N          -7.5990    2.5423    0.2097 N.ar    1  LIG1       -0.2460
     19 H          -3.9165    2.5658   -0.9546 H       1  LIG1        0.0625
     20 H          -7.7129    4.4937   -0.4045 H       1  LIG1        0.0830
     21 C          -7.4636    0.2990    0.9491 C.1     1  LIG1       -0.0491
     22 C          -7.9787   -0.6453    1.4810 C.1     1  LIG1       -0.1124
     23 H          -8.4397   -1.4881    1.9413 H       1  LIG1        0.1232
     24 H          -5.3436    4.6186   -1.1709 H       1  LIG1        0.0633
@<TRIPOS>BOND
     1    11    10    1
     2    10     9    3
     3    24    16    1
     4     9     1    1
     5    19    15    1
     6    16    15   ar
     7    16    17   ar
     8    15    14   ar
     9     6     1   ar
    10     6     5   ar
    11    20    17    1
    12     1     2   ar
    13    17    18   ar
    14    14     5    1
    15    14    13   ar
    16     5     4   ar
    17    18    13   ar
    18     2     8    1
    19     2     3   ar
    20    13    21    1
    21     4     3   ar
    22     4    12    1
    23     3     7    1
    24    21    22    3
    25    22    23    1
