@<TRIPOS>MOLECULE
mol_data/opt/m06hf/geoms/mol2/6ea6ea6ea-6ea-.out
 46 49 0 0 0
SMALL
GASTEIGER

@<TRIPOS>ATOM
      1 C          -4.5674   -2.3237   -0.2763 C.ar    1  LIG1        0.1138
      2 C          -3.1844   -2.3949   -0.0834 C.ar    1  LIG1       -0.0278
      3 C          -2.4886   -1.2106    0.1164 C.ar    1  LIG1       -0.0571
      4 C          -3.1916   -0.0116    0.1171 C.ar    1  LIG1       -0.0355
      5 C          -4.5733   -0.0482   -0.0890 C.ar    1  LIG1        0.0750
      6 N          -5.2473   -1.1784   -0.2829 N.ar    1  LIG1       -0.2383
      7 H          -1.4190   -1.2215    0.2775 H       1  LIG1        0.0619
      8 H          -2.6920   -3.3565   -0.0915 H       1  LIG1        0.0645
      9 C          -5.3231   -3.5446   -0.4873 C.1     1  LIG1       -0.0498
     10 C          -5.9210   -4.5712   -0.6580 C.1     1  LIG1       -0.1124
     11 H          -6.4662   -5.4735   -0.8124 H       1  LIG1        0.1232
     12 H          -2.6956    0.9337    0.2915 H       1  LIG1        0.0639
     13 C          -6.5215    1.3954    0.6497 C.ar    1  LIG1        0.1230
     14 C          -5.3611    1.2195   -0.1214 C.ar    1  LIG1        0.0342
     15 C          -4.9700    2.2765   -0.9382 C.ar    1  LIG1       -0.0479
     16 C          -5.7184    3.4447   -0.9704 C.ar    1  LIG1       -0.0349
     17 C          -6.8529    3.5235   -0.1598 C.ar    1  LIG1        0.0751
     18 N          -7.2396    2.5158    0.6210 N.ar    1  LIG1       -0.2377
     19 H          -4.0962    2.1681   -1.5689 H       1  LIG1        0.0626
     20 C          -6.9813    0.3634    1.5588 C.1     1  LIG1       -0.0491
     21 C          -7.3557   -0.4756    2.3303 C.1     1  LIG1       -0.1124
     22 H          -7.6906   -1.2266    3.0076 H       1  LIG1        0.1232
     23 H          -5.4450    4.2667   -1.6144 H       1  LIG1        0.0639
     24 C          -7.3534    6.0389   -0.3272 C.ar    1  LIG1        0.1230
     25 C          -7.7652    4.7076   -0.1538 C.ar    1  LIG1        0.0342
     26 C          -9.1273    4.4856    0.0578 C.ar    1  LIG1       -0.0479
     27 C         -10.0081    5.5531    0.0493 C.ar    1  LIG1       -0.0349
     28 C          -9.4969    6.8366   -0.1698 C.ar    1  LIG1        0.0751
     29 N          -8.2022    7.0683   -0.3437 N.ar    1  LIG1       -0.2377
     30 H          -9.4618    3.4726    0.2392 H       1  LIG1        0.0626
     31 C          -5.9542    6.4084   -0.4622 C.1     1  LIG1       -0.0491
     32 C          -4.8070    6.7491   -0.5637 C.1     1  LIG1       -0.1124
     33 H          -3.7921    7.0627   -0.6497 H       1  LIG1        0.1232
     34 H         -11.0655    5.4120    0.2265 H       1  LIG1        0.0639
     35 C         -10.1898    9.1726    0.5338 C.ar    1  LIG1        0.1222
     36 C         -10.4146    8.0127   -0.2269 C.ar    1  LIG1        0.0342
     37 C         -11.5424    7.9819   -1.0433 C.ar    1  LIG1       -0.0485
     38 C         -12.3833    9.0855   -1.0904 C.ar    1  LIG1       -0.0429
     39 C         -12.0597   10.1895   -0.3058 C.ar    1  LIG1        0.0290
     40 N         -10.9970   10.2340    0.4904 N.ar    1  LIG1       -0.2460
     41 H         -11.7402    7.1055   -1.6485 H       1  LIG1        0.0625
     42 H         -12.6842   11.0745   -0.3143 H       1  LIG1        0.0830
     43 C          -9.0722    9.2555    1.4541 C.1     1  LIG1       -0.0491
     44 C          -8.1640    9.3278    2.2351 C.1     1  LIG1       -0.1124
     45 H          -7.3512    9.3932    2.9206 H       1  LIG1        0.1232
     46 H         -13.2616    9.0981   -1.7202 H       1  LIG1        0.0633
@<TRIPOS>BOND
     1    46    38    1
     2    41    37    1
     3    23    16    1
     4    19    15    1
     5    38    37   ar
     6    38    39   ar
     7    37    36   ar
     8    16    15   ar
     9    16    17   ar
    10    15    14   ar
    11    11    10    1
    12    10     9    3
    13    33    32    1
    14    32    31    3
    15     9     1    1
    16    31    24    1
    17    29    24   ar
    18    29    28   ar
    19    24    25   ar
    20    42    39    1
    21    39    40   ar
    22     6     1   ar
    23     6     5   ar
    24     1     2   ar
    25    36    28    1
    26    36    35   ar
    27    28    27   ar
    28    17    25    1
    29    17    18   ar
    30    25    26   ar
    31    14     5    1
    32    14    13   ar
    33     8     2    1
    34     5     4   ar
    35     2     3   ar
    36    27    26   ar
    37    27    34    1
    38    26    30    1
    39     3     4   ar
    40     3     7    1
    41     4    12    1
    42    40    35   ar
    43    35    43    1
    44    18    13   ar
    45    13    20    1
    46    43    44    3
    47    20    21    3
    48    44    45    1
    49    21    22    1
