@<TRIPOS>MOLECULE
mol_data/opt/m06hf/geoms/mol2/6ea6ea-6ea-6ea.out
 46 49 0 0 0
SMALL
GASTEIGER

@<TRIPOS>ATOM
      1 C          -4.1399   -2.0529    0.6900 C.ar    1  LIG1        0.1138
      2 C          -3.2673   -2.4302   -0.3337 C.ar    1  LIG1       -0.0278
      3 C          -3.0655   -1.5390   -1.3790 C.ar    1  LIG1       -0.0571
      4 C          -3.7167   -0.3118   -1.3607 C.ar    1  LIG1       -0.0355
      5 C          -4.5514   -0.0175   -0.2786 C.ar    1  LIG1        0.0750
      6 N          -4.7689   -0.8791    0.7144 N.ar    1  LIG1       -0.2383
      7 H          -2.4151   -1.7989   -2.2036 H       1  LIG1        0.0619
      8 H          -2.7853   -3.3965   -0.2980 H       1  LIG1        0.0645
      9 C          -4.3946   -2.9669    1.7878 C.1     1  LIG1       -0.0498
     10 C          -4.5856   -3.7454    2.6819 C.1     1  LIG1       -0.1124
     11 H          -4.7607   -4.4261    3.4834 H       1  LIG1        0.1232
     12 H          -3.5924    0.4003   -2.1628 H       1  LIG1        0.0639
     13 C          -4.8587    2.5082   -0.6171 C.ar    1  LIG1        0.1230
     14 C          -5.3268    1.2571   -0.1860 C.ar    1  LIG1        0.0342
     15 C          -6.5982    1.2158    0.3887 C.ar    1  LIG1       -0.0479
     16 C          -7.3526    2.3730    0.4746 C.ar    1  LIG1       -0.0349
     17 C          -6.8049    3.5614   -0.0192 C.ar    1  LIG1        0.0751
     18 N          -5.5866    3.6238   -0.5410 N.ar    1  LIG1       -0.2377
     19 H          -6.9613    0.2704    0.7699 H       1  LIG1        0.0626
     20 C          -3.5163    2.6925   -1.1415 C.1     1  LIG1       -0.0491
     21 C          -2.4069    2.8775   -1.5636 C.1     1  LIG1       -0.1124
     22 H          -1.4226    3.0543   -1.9326 H       1  LIG1        0.1232
     23 H          -8.3344    2.3725    0.9277 H       1  LIG1        0.0639
     24 C          -7.0685    6.0150    0.5590 C.ar    1  LIG1        0.1230
     25 C          -7.5918    4.8285    0.0199 C.ar    1  LIG1        0.0342
     26 C          -8.8953    4.8682   -0.4665 C.ar    1  LIG1       -0.0479
     27 C          -9.6141    6.0547   -0.4342 C.ar    1  LIG1       -0.0349
     28 C          -8.9917    7.1886    0.0925 C.ar    1  LIG1        0.0751
     29 N          -7.7576    7.1533    0.5924 N.ar    1  LIG1       -0.2377
     30 H          -9.3387    3.9708   -0.8805 H       1  LIG1        0.0626
     31 C          -5.7486    6.0483    1.1583 C.1     1  LIG1       -0.0491
     32 C          -4.6660    6.0803    1.6748 C.1     1  LIG1       -0.1124
     33 H          -3.6989    6.1087    2.1204 H       1  LIG1        0.1232
     34 H         -10.6268    6.1060   -0.8046 H       1  LIG1        0.0639
     35 C         -10.6197    9.0074   -0.7029 C.ar    1  LIG1        0.1222
     36 C          -9.6841    8.5076    0.2164 C.ar    1  LIG1        0.0342
     37 C          -9.3745    9.3116    1.3156 C.ar    1  LIG1       -0.0485
     38 C         -10.0167   10.5275    1.4793 C.ar    1  LIG1       -0.0429
     39 C         -10.9535   10.9124    0.5205 C.ar    1  LIG1        0.0290
     40 N         -11.2407   10.1808   -0.5471 N.ar    1  LIG1       -0.2460
     41 H          -8.6286    8.9600    2.0162 H       1  LIG1        0.0625
     42 H         -11.4857   11.8515    0.6116 H       1  LIG1        0.0830
     43 C         -10.9525    8.3016   -1.9291 C.1     1  LIG1       -0.0491
     44 C         -11.2363    7.7501   -2.9576 C.1     1  LIG1       -0.1124
     45 H         -11.4840    7.2721   -3.8769 H       1  LIG1        0.1232
     46 H          -9.8048   11.1655    2.3254 H       1  LIG1        0.0633
@<TRIPOS>BOND
     1    45    44    1
     2    44    43    3
     3     7     3    1
     4    12     4    1
     5    22    21    1
     6    43    35    1
     7    21    20    3
     8     3     4   ar
     9     3     2   ar
    10     4     5   ar
    11    20    13    1
    12    30    26    1
    13    34    27    1
    14    35    40   ar
    15    35    36   ar
    16    13    18   ar
    17    13    14   ar
    18    40    39   ar
    19    18    17   ar
    20    26    27   ar
    21    26    25   ar
    22    27    28   ar
    23     2     8    1
    24     2     1   ar
    25     5    14    1
    26     5     6   ar
    27    14    15   ar
    28    17    25    1
    29    17    16   ar
    30    25    24   ar
    31    28    36    1
    32    28    29   ar
    33    36    37   ar
    34    15    16   ar
    35    15    19    1
    36    16    23    1
    37    39    42    1
    38    39    38   ar
    39    24    29   ar
    40    24    31    1
    41     1     6   ar
    42     1     9    1
    43    31    32    3
    44    37    38   ar
    45    37    41    1
    46    38    46    1
    47    32    33    1
    48     9    10    3
    49    10    11    1
