@<TRIPOS>MOLECULE
mol_data/opt/m06hf/geoms/mol2/6ea6ea-.out
 24 25 0 0 0
SMALL
GASTEIGER

@<TRIPOS>ATOM
      1 C           2.6080    0.0324   -0.1223 C.ar    1  LIG1        0.1138
      2 C           2.8517    1.3438    0.2920 C.ar    1  LIG1       -0.0278
      3 C           1.7649    2.1175    0.6765 C.ar    1  LIG1       -0.0571
      4 C           0.4888    1.5710    0.6210 C.ar    1  LIG1       -0.0355
      5 C           0.3459    0.2554    0.1693 C.ar    1  LIG1        0.0750
      6 N           1.3878   -0.4987   -0.1784 N.ar    1  LIG1       -0.2383
      7 H           1.9096    3.1317    1.0242 H       1  LIG1        0.0619
      8 H           3.8641    1.7204    0.3152 H       1  LIG1        0.0645
      9 C           3.7203   -0.8149   -0.5114 C.1     1  LIG1       -0.0498
     10 C           4.6597   -1.4934   -0.8247 C.1     1  LIG1       -0.1124
     11 H           5.4854   -2.1044   -1.1079 H       1  LIG1        0.1232
     12 H          -0.3775    2.1384    0.9258 H       1  LIG1        0.0639
     13 C          -2.1911    0.1879   -0.2191 C.ar    1  LIG1        0.1222
     14 C          -0.9788   -0.4362    0.1127 C.ar    1  LIG1        0.0342
     15 C          -1.0185   -1.8047    0.3900 C.ar    1  LIG1       -0.0485
     16 C          -2.2301   -2.4746    0.3687 C.ar    1  LIG1       -0.0429
     17 C          -3.3792   -1.7482    0.0561 C.ar    1  LIG1        0.0290
     18 N          -3.3621   -0.4563   -0.2401 N.ar    1  LIG1       -0.2460
     19 H          -0.0887   -2.3113    0.6124 H       1  LIG1        0.0625
     20 H          -4.3496   -2.2287    0.0339 H       1  LIG1        0.0830
     21 C          -2.2593    1.5846   -0.6155 C.1     1  LIG1       -0.0491
     22 C          -2.3465    2.7318   -0.9619 C.1     1  LIG1       -0.1124
     23 H          -2.4332    3.7448   -1.2816 H       1  LIG1        0.1232
     24 H          -2.2930   -3.5311    0.5876 H       1  LIG1        0.0633
@<TRIPOS>BOND
     1    23    22    1
     2    11    10    1
     3    22    21    3
     4    10     9    3
     5    21    13    1
     6     9     1    1
     7    18    13   ar
     8    18    17   ar
     9    13    14   ar
    10     6     1   ar
    11     6     5   ar
    12     1     2   ar
    13    20    17    1
    14    17    16   ar
    15    14     5    1
    16    14    15   ar
    17     5     4   ar
    18     2     8    1
    19     2     3   ar
    20    16    15   ar
    21    16    24    1
    22    15    19    1
    23     4     3   ar
    24     4    12    1
    25     3     7    1
