@<TRIPOS>MOLECULE
mol_data/opt/m06hf/geoms/mol2/6ea6ea6ea.out
 35 37 0 0 0
SMALL
GASTEIGER

@<TRIPOS>ATOM
      1 C          -4.1066   -2.0100   -0.6092 C.ar    1  LIG1        0.1138
      2 C          -3.1573   -2.2159    0.3965 C.ar    1  LIG1       -0.0278
      3 C          -3.0015   -1.2318    1.3627 C.ar    1  LIG1       -0.0571
      4 C          -3.7923   -0.0911    1.2907 C.ar    1  LIG1       -0.0355
      5 C          -4.7110    0.0196    0.2431 C.ar    1  LIG1        0.0750
      6 N          -4.8644   -0.9173   -0.6885 N.ar    1  LIG1       -0.2383
      7 H          -2.2833   -1.3545    2.1624 H       1  LIG1        0.0619
      8 H          -2.5737   -3.1252    0.4030 H       1  LIG1        0.0645
      9 C          -4.2903   -3.0220   -1.6333 C.1     1  LIG1       -0.0498
     10 C          -4.4187   -3.8780   -2.4648 C.1     1  LIG1       -0.1124
     11 H          -4.5441   -4.6280   -3.2109 H       1  LIG1        0.1232
     12 H          -3.7236    0.6921    2.0332 H       1  LIG1        0.0639
     13 C          -6.9612    1.1633   -0.0014 C.ar    1  LIG1        0.1230
     14 C          -5.5626    1.2405    0.1204 C.ar    1  LIG1        0.0342
     15 C          -4.9863    2.5066    0.1312 C.ar    1  LIG1       -0.0479
     16 C          -5.7939    3.6292    0.0094 C.ar    1  LIG1       -0.0349
     17 C          -7.1710    3.4422   -0.1206 C.ar    1  LIG1        0.0751
     18 N          -7.7368    2.2388   -0.1217 N.ar    1  LIG1       -0.2377
     19 H          -3.9116    2.6058    0.2216 H       1  LIG1        0.0626
     20 C          -7.6420   -0.1162    0.0333 C.1     1  LIG1       -0.0491
     21 C          -8.2107   -1.1718    0.0785 C.1     1  LIG1       -0.1124
     22 H          -8.7157   -2.1094    0.1055 H       1  LIG1        0.1232
     23 H          -5.3785    4.6276    0.0269 H       1  LIG1        0.0639
     24 C          -9.2024    4.8057    0.5386 C.ar    1  LIG1        0.1222
     25 C          -8.0775    4.6178   -0.2818 C.ar    1  LIG1        0.0342
     26 C          -7.8210    5.5759   -1.2590 C.ar    1  LIG1       -0.0485
     27 C          -8.6799    6.6579   -1.3981 C.ar    1  LIG1       -0.0429
     28 C          -9.7724    6.7418   -0.5389 C.ar    1  LIG1        0.0290
     29 N         -10.0273    5.8459    0.4085 N.ar    1  LIG1       -0.2460
     30 H          -6.9674    5.4548   -1.9148 H       1  LIG1        0.0625
     31 H         -10.4732    7.5644   -0.6147 H       1  LIG1        0.0830
     32 C          -9.5026    3.8793    1.6130 C.1     1  LIG1       -0.0491
     33 C          -9.7462    3.1276    2.5168 C.1     1  LIG1       -0.1124
     34 H          -9.9687    2.4517    3.3101 H       1  LIG1        0.1232
     35 H          -8.5166    7.4134   -2.1536 H       1  LIG1        0.0633
@<TRIPOS>BOND
     1    11    10    1
     2    10     9    3
     3    35    27    1
     4    30    26    1
     5     9     1    1
     6    27    26   ar
     7    27    28   ar
     8    26    25   ar
     9     6     1   ar
    10     6     5   ar
    11    31    28    1
    12     1     2   ar
    13    28    29   ar
    14    25    17    1
    15    25    24   ar
    16    18    17   ar
    17    18    13   ar
    18    17    16   ar
    19    13    20    1
    20    13    14   ar
    21    16    23    1
    22    16    15   ar
    23    20    21    3
    24    21    22    1
    25    14    15   ar
    26    14     5    1
    27    15    19    1
    28     5     4   ar
    29     2     8    1
    30     2     3   ar
    31    29    24   ar
    32    24    32    1
    33     4     3   ar
    34     4    12    1
    35     3     7    1
    36    32    33    3
    37    33    34    1
