@<TRIPOS>MOLECULE
mol_data/opt/m06hf/geoms/mol2/6ea6ea6ea-6ea.out
 46 49 0 0 0
SMALL
GASTEIGER

@<TRIPOS>ATOM
      1 C          -4.4453   -2.2838   -0.3411 C.ar    1  LIG1        0.1138
      2 C          -3.0689   -2.3137   -0.0967 C.ar    1  LIG1       -0.0278
      3 C          -2.4271   -1.1162    0.1860 C.ar    1  LIG1       -0.0571
      4 C          -3.1753    0.0548    0.2146 C.ar    1  LIG1       -0.0355
      5 C          -4.5458   -0.0224   -0.0468 C.ar    1  LIG1        0.0750
      6 N          -5.1686   -1.1655   -0.3209 N.ar    1  LIG1       -0.2383
      7 H          -1.3645   -1.0951    0.3884 H       1  LIG1        0.0619
      8 H          -2.5407   -3.2557   -0.1310 H       1  LIG1        0.0645
      9 C          -5.1425   -3.5214   -0.6381 C.1     1  LIG1       -0.0498
     10 C          -5.6871   -4.5634   -0.8805 C.1     1  LIG1       -0.1124
     11 H          -6.1840   -5.4801   -1.0996 H       1  LIG1        0.1232
     12 H          -2.7234    1.0079    0.4524 H       1  LIG1        0.0639
     13 C          -6.5652    1.3194    0.6959 C.ar    1  LIG1        0.1230
     14 C          -5.3777    1.2177   -0.0470 C.ar    1  LIG1        0.0342
     15 C          -4.9981    2.3246   -0.8004 C.ar    1  LIG1       -0.0479
     16 C          -5.7819    3.4697   -0.7981 C.ar    1  LIG1       -0.0349
     17 C          -6.9385    3.4755   -0.0153 C.ar    1  LIG1        0.0751
     18 N          -7.3156    2.4186    0.7027 N.ar    1  LIG1       -0.2377
     19 H          -4.1037    2.2738   -1.4094 H       1  LIG1        0.0626
     20 C          -7.0200    0.2276    1.5349 C.1     1  LIG1       -0.0491
     21 C          -7.3928   -0.6648    2.2449 C.1     1  LIG1       -0.1124
     22 H          -7.7265   -1.4633    2.8661 H       1  LIG1        0.1232
     23 H          -5.5177    4.3296   -1.3947 H       1  LIG1        0.0639
     24 C          -7.4966    5.9809   -0.0614 C.ar    1  LIG1        0.1230
     25 C          -7.8800    4.6347    0.0302 C.ar    1  LIG1        0.0342
     26 C          -9.2408    4.3765    0.2077 C.ar    1  LIG1       -0.0479
     27 C         -10.1514    5.4184    0.2278 C.ar    1  LIG1       -0.0349
     28 C          -9.6708    6.7227    0.0700 C.ar    1  LIG1        0.0751
     29 N          -8.3729    6.9864   -0.0432 N.ar    1  LIG1       -0.2377
     30 H          -9.5563    3.3497    0.3385 H       1  LIG1        0.0626
     31 C          -6.1044    6.3920   -0.1364 C.1     1  LIG1       -0.0491
     32 C          -4.9640    6.7652   -0.1874 C.1     1  LIG1       -0.1124
     33 H          -3.9542    7.1029   -0.2297 H       1  LIG1        0.1232
     34 H         -11.2063    5.2361    0.3674 H       1  LIG1        0.0639
     35 C         -11.8575    7.9630   -0.4349 C.ar    1  LIG1        0.1222
     36 C         -10.5589    7.9245    0.0949 C.ar    1  LIG1        0.0342
     37 C         -10.0614    9.1010    0.6594 C.ar    1  LIG1       -0.0485
     38 C         -10.8624   10.2293    0.7103 C.ar    1  LIG1       -0.0429
     39 C         -12.1490   10.1484    0.1782 C.ar    1  LIG1        0.0290
     40 N         -12.6324    9.0514   -0.3876 N.ar    1  LIG1       -0.2460
     41 H          -9.0490    9.1009    1.0417 H       1  LIG1        0.0625
     42 H         -12.8142   11.0031    0.2024 H       1  LIG1        0.0830
     43 C         -12.4457    6.8261   -1.1224 C.1     1  LIG1       -0.0491
     44 C         -12.9548    5.9084   -1.7067 C.1     1  LIG1       -0.1124
     45 H         -13.4112    5.1004   -2.2302 H       1  LIG1        0.1232
     46 H         -10.5072   11.1513    1.1485 H       1  LIG1        0.0633
@<TRIPOS>BOND
     1    45    44    1
     2    44    43    3
     3    19    15    1
     4    23    16    1
     5    43    35    1
     6    11    10    1
     7    10     9    3
     8    15    16   ar
     9    15    14   ar
    10    16    17   ar
    11     9     1    1
    12    35    40   ar
    13    35    36   ar
    14    40    39   ar
    15     1     6   ar
    16     1     2   ar
    17     6     5   ar
    18    33    32    1
    19    32    31    3
    20    31    24    1
    21     8     2    1
    22     2     3   ar
    23    24    29   ar
    24    24    25   ar
    25    14     5    1
    26    14    13   ar
    27     5     4   ar
    28    29    28   ar
    29    17    25    1
    30    17    18   ar
    31    25    26   ar
    32    28    36    1
    33    28    27   ar
    34    36    37   ar
    35    39    42    1
    36    39    38   ar
    37     3     4   ar
    38     3     7    1
    39    26    27   ar
    40    26    30    1
    41     4    12    1
    42    27    34    1
    43    37    38   ar
    44    37    41    1
    45    13    18   ar
    46    13    20    1
    47    38    46    1
    48    20    21    3
    49    21    22    1
