@<TRIPOS>MOLECULE
mol_data/opt/m06hf/geoms/mol2/6ea6ea6ea6ea.out
 46 49 0 0 0
SMALL
GASTEIGER

@<TRIPOS>ATOM
      1 C          -3.7097   -1.8388   -0.8106 C.ar    1  LIG1        0.1138
      2 C          -3.1206   -2.3419    0.3540 C.ar    1  LIG1       -0.0278
      3 C          -3.3831   -1.6960    1.5540 C.ar    1  LIG1       -0.0571
      4 C          -4.2158   -0.5828    1.5477 C.ar    1  LIG1       -0.0355
      5 C          -4.7527   -0.1586    0.3298 C.ar    1  LIG1        0.0750
      6 N          -4.5051   -0.7705   -0.8254 N.ar    1  LIG1       -0.2383
      7 H          -2.9537   -2.0570    2.4789 H       1  LIG1        0.0619
      8 H          -2.4838   -3.2129    0.2974 H       1  LIG1        0.0645
      9 C          -3.4535   -2.4928   -2.0803 C.1     1  LIG1       -0.0498
     10 C          -3.2239   -3.0521   -3.1176 C.1     1  LIG1       -0.1124
     11 H          -3.0307   -3.5350   -4.0478 H       1  LIG1        0.1232
     12 H          -4.4671   -0.0596    2.4604 H       1  LIG1        0.0639
     13 C          -6.9065    1.0080   -0.3194 C.ar    1  LIG1        0.1230
     14 C          -5.6341    1.0460    0.2765 C.ar    1  LIG1        0.0342
     15 C          -5.2154    2.2537    0.8259 C.ar    1  LIG1       -0.0479
     16 C          -6.0451    3.3645    0.7530 C.ar    1  LIG1       -0.0349
     17 C          -7.2829    3.2240    0.1236 C.ar    1  LIG1        0.0751
     18 N          -7.7024    2.0728   -0.3937 N.ar    1  LIG1       -0.2377
     19 H          -4.2403    2.3210    1.2924 H       1  LIG1        0.0626
     20 C          -7.4377   -0.2280   -0.8600 C.1     1  LIG1       -0.0491
     21 C          -7.8951   -1.2502   -1.2904 C.1     1  LIG1       -0.1124
     22 H          -8.2996   -2.1539   -1.6833 H       1  LIG1        0.1232
     23 H          -5.7553    4.3151    1.1795 H       1  LIG1        0.0639
     24 C          -9.5354    4.3481    0.4154 C.ar    1  LIG1        0.1230
     25 C          -8.1974    4.3964   -0.0122 C.ar    1  LIG1        0.0342
     26 C          -7.7420    5.5854   -0.5731 C.ar    1  LIG1       -0.0479
     27 C          -8.6126    6.6589   -0.7036 C.ar    1  LIG1       -0.0349
     28 C          -9.9270    6.5017   -0.2613 C.ar    1  LIG1        0.0751
     29 N         -10.3723    5.3755    0.2888 N.ar    1  LIG1       -0.2377
     30 H          -6.7169    5.6585   -0.9157 H       1  LIG1        0.0626
     31 C         -10.0670    3.1622    1.0586 C.1     1  LIG1       -0.0491
     32 C         -10.5095    2.1916    1.6076 C.1     1  LIG1       -0.1124
     33 H         -10.9085    1.3253    2.0821 H       1  LIG1        0.1232
     34 H          -8.2892    7.6007   -1.1253 H       1  LIG1        0.0639
     35 C         -11.6541    8.0985    0.6794 C.ar    1  LIG1        0.1222
     36 C         -10.9093    7.6165   -0.4098 C.ar    1  LIG1        0.0342
     37 C         -11.1115    8.2168   -1.6496 C.ar    1  LIG1       -0.0485
     38 C         -12.0384    9.2435   -1.7685 C.ar    1  LIG1       -0.0429
     39 C         -12.7308    9.6367   -0.6267 C.ar    1  LIG1        0.0290
     40 N         -12.5424    9.0872    0.5683 N.ar    1  LIG1       -0.2460
     41 H         -10.5595    7.8614   -2.5113 H       1  LIG1        0.0625
     42 H         -13.4679   10.4293   -0.6738 H       1  LIG1        0.0830
     43 C         -11.4562    7.5544    2.0091 C.1     1  LIG1       -0.0491
     44 C         -11.2789    7.1157    3.1118 C.1     1  LIG1       -0.1124
     45 H         -11.1291    6.7134    4.0867 H       1  LIG1        0.1232
     46 H         -12.2285    9.7233   -2.7180 H       1  LIG1        0.0633
@<TRIPOS>BOND
     1    11    10    1
     2    10     9    3
     3    46    38    1
     4    41    37    1
     5     9     1    1
     6    38    37   ar
     7    38    39   ar
     8    22    21    1
     9    37    36   ar
    10    21    20    3
    11    34    27    1
    12    30    26    1
    13    20    13    1
    14     6     1   ar
    15     6     5   ar
    16     1     2   ar
    17    27    26   ar
    18    27    28   ar
    19    42    39    1
    20    39    40   ar
    21    26    25   ar
    22    36    28    1
    23    36    35   ar
    24    18    13   ar
    25    18    17   ar
    26    13    14   ar
    27    28    29   ar
    28    25    17    1
    29    25    24   ar
    30    17    16   ar
    31    14     5    1
    32    14    15   ar
    33    29    24   ar
    34     8     2    1
    35     5     4   ar
    36     2     3   ar
    37    24    31    1
    38    40    35   ar
    39    35    43    1
    40    16    15   ar
    41    16    23    1
    42    15    19    1
    43    31    32    3
    44     4     3   ar
    45     4    12    1
    46     3     7    1
    47    32    33    1
    48    43    44    3
    49    44    45    1
