@<TRIPOS>MOLECULE
mol_data/opt/m06hf/geoms/mol2/6ea6ea-6ea.out
 35 37 0 0 0
SMALL
GASTEIGER

@<TRIPOS>ATOM
      1 C          -4.4467   -2.1869   -0.0000 C.ar    1  LIG1        0.1138
      2 C          -3.0530   -2.2949   -0.0006 C.ar    1  LIG1       -0.0278
      3 C          -2.3207   -1.1183   -0.0012 C.ar    1  LIG1       -0.0571
      4 C          -2.9826    0.1053   -0.0011 C.ar    1  LIG1       -0.0355
      5 C          -4.3808    0.1138   -0.0005 C.ar    1  LIG1        0.0750
      6 N          -5.0829   -1.0212    0.0000 N.ar    1  LIG1       -0.2383
      7 H          -1.2390   -1.1455   -0.0017 H       1  LIG1        0.0619
      8 H          -2.5881   -3.2700   -0.0006 H       1  LIG1        0.0645
      9 C          -5.2609   -3.3890    0.0005 C.1     1  LIG1       -0.0498
     10 C          -5.9055   -4.4014    0.0009 C.1     1  LIG1       -0.1124
     11 H          -6.4872   -5.2939    0.0010 H       1  LIG1        0.1232
     12 H          -2.4261    1.0268   -0.0016 H       1  LIG1        0.0639
     13 C          -4.7791    2.6887    0.0002 C.ar    1  LIG1        0.1230
     14 C          -5.2274    1.3560   -0.0004 C.ar    1  LIG1        0.0342
     15 C          -6.6149    1.1880   -0.0009 C.ar    1  LIG1       -0.0479
     16 C          -7.4752    2.2716   -0.0009 C.ar    1  LIG1       -0.0349
     17 C          -6.9283    3.5589   -0.0003 C.ar    1  LIG1        0.0751
     18 N          -5.6101    3.7303    0.0002 N.ar    1  LIG1       -0.2377
     19 H          -7.0010    0.1782   -0.0014 H       1  LIG1        0.0626
     20 C          -3.3823    3.0967    0.0011 C.1     1  LIG1       -0.0491
     21 C          -2.2580    3.5211    0.0018 C.1     1  LIG1       -0.1124
     22 H          -1.2628    3.9030    0.0026 H       1  LIG1        0.1232
     23 H          -8.5401    2.1180   -0.0014 H       1  LIG1        0.0639
     24 C          -9.1197    4.9595   -0.0001 C.ar    1  LIG1        0.1222
     25 C          -7.7180    4.8388   -0.0003 C.ar    1  LIG1        0.0342
     26 C          -6.9909    6.0359   -0.0006 C.ar    1  LIG1       -0.0485
     27 C          -7.6442    7.2550   -0.0007 C.ar    1  LIG1       -0.0429
     28 C          -9.0378    7.2535   -0.0004 C.ar    1  LIG1        0.0290
     29 N          -9.7524    6.1396   -0.0001 N.ar    1  LIG1       -0.2460
     30 H          -5.9117    5.9737   -0.0008 H       1  LIG1        0.0625
     31 H          -9.5988    8.1803   -0.0004 H       1  LIG1        0.0830
     32 C         -10.0461    3.8385    0.0004 C.1     1  LIG1       -0.0491
     33 C         -10.8819    2.9747    0.0009 C.1     1  LIG1       -0.1124
     34 H         -11.6285    2.2136    0.0014 H       1  LIG1        0.1232
     35 H          -7.0939    8.1851   -0.0009 H       1  LIG1        0.0633
@<TRIPOS>BOND
     1     7     3    1
     2    12     4    1
     3    23    16    1
     4    19    15    1
     5     3     4   ar
     6     3     2   ar
     7     4     5   ar
     8    16    15   ar
     9    16    17   ar
    10    15    14   ar
    11    35    27    1
    12    30    26    1
    13    27    26   ar
    14    27    28   ar
    15     8     2    1
    16     2     1   ar
    17    26    25   ar
    18     5    14    1
    19     5     6   ar
    20    31    28    1
    21    28    29   ar
    22    14    13   ar
    23    17    25    1
    24    17    18   ar
    25    25    24   ar
    26    29    24   ar
    27    24    32    1
    28     1     6   ar
    29     1     9    1
    30    18    13   ar
    31    13    20    1
    32    32    33    3
    33     9    10    3
    34    10    11    1
    35    33    34    1
    36    20    21    3
    37    21    22    1
