@<TRIPOS>MOLECULE
mol_data/opt/m06hf/geoms/mol2/6ed12id12ai-6fh-.out
 47 50 0 0 0
SMALL
GASTEIGER

@<TRIPOS>ATOM
      1 C          -3.9718   -1.9634    0.5595 C.ar    1  LIG1        0.1140
      2 C          -2.7875   -2.0180   -0.1886 C.ar    1  LIG1       -0.0266
      3 C          -2.4365   -0.9115   -0.9392 C.ar    1  LIG1       -0.0395
      4 C          -3.2704    0.2086   -0.9105 C.ar    1  LIG1        0.0808
      5 C          -4.4134    0.1850   -0.0972 C.ar    1  LIG1        0.1249
      6 N          -4.7542   -0.8883    0.6095 N.ar    1  LIG1       -0.2340
      7 H          -1.5487   -0.9056   -1.5569 H       1  LIG1        0.0632
      8 H          -2.1872   -2.9153   -0.1788 H       1  LIG1        0.0646
      9 C          -4.3841   -3.1185    1.3280 C.1     1  LIG1       -0.0498
     10 C          -4.7111   -4.0911    1.9498 C.1     1  LIG1       -0.1124
     11 H          -5.0187   -4.9487    2.5034 H       1  LIG1        0.1232
     12 N          -2.7247    2.2181   -2.4546 N.1     1  LIG1       -0.1908
     13 C          -2.9780    1.3392   -1.7613 C.1     1  LIG1        0.1014
     14 C          -5.3220    1.3434    0.0079 C.ar    1  LIG1        0.1594
     15 C          -5.1194    2.6800    0.1715 C.ar    1  LIG1        0.0150
     16 C          -6.4473    3.2338    0.2538 C.ar    1  LIG1        0.1040
     17 C          -7.3260    2.1909    0.1445 C.ar    1  LIG1        0.1882
     18 O          -6.6491    1.0519    0.0011 O.2     1  LIG1       -0.4485
     19 C          -3.8428    3.4656    0.3143 C.3     1  LIG1       -0.0348
     20 H          -3.9768    4.2206    1.0890 H       1  LIG1        0.0279
     21 H          -3.5933    3.9551   -0.6273 H       1  LIG1        0.0279
     22 H          -3.0209    2.8086    0.5966 H       1  LIG1        0.0279
     23 N          -7.1132    5.7010    0.6037 N.1     1  LIG1       -0.1907
     24 C          -6.8060    4.6059    0.4437 C.1     1  LIG1        0.1034
     25 C          -8.7741    2.1325    0.1675 C.ar    1  LIG1        0.1721
     26 C          -9.7346    3.0753    0.3562 C.ar    1  LIG1       -0.0092
     27 C         -10.9948    2.3871    0.2920 C.ar    1  LIG1       -0.0038
     28 C         -10.6896    1.0775    0.0528 C.ar    1  LIG1        0.1439
     29 O          -9.3410    0.9198   -0.0198 O.2     1  LIG1       -0.4513
     30 H          -9.5748    4.1266    0.5364 H       1  LIG1        0.0659
     31 C         -12.3542    3.0050    0.5061 C.3     1  LIG1       -0.0361
     32 H         -13.0562    2.2572    0.8747 H       1  LIG1        0.0279
     33 H         -12.7408    3.4294   -0.4222 H       1  LIG1        0.0279
     34 H         -12.2757    3.8049    1.2416 H       1  LIG1        0.0279
     35 C         -11.1028   -1.3873    0.3656 C.ar    1  LIG1        0.2233
     36 C         -11.5136   -0.1264   -0.1178 C.ar    1  LIG1        0.0805
     37 C         -12.7556   -0.0359   -0.7405 C.ar    1  LIG1       -0.0238
     38 C         -13.5732   -1.1594   -0.8427 C.ar    1  LIG1        0.0438
     39 C         -13.0738   -2.3430   -0.2955 C.ar    1  LIG1        0.0520
     40 N         -11.8806   -2.4485    0.2765 N.ar    1  LIG1       -0.2190
     41 H         -13.0775    0.9120   -1.1548 H       1  LIG1        0.0645
     42 H         -13.6700   -3.2493   -0.3314 H       1  LIG1        0.0849
     43 O          -9.9112   -1.5955    0.9589 O.3     1  LIG1       -0.4919
     44 H          -9.3087   -0.8554    0.8135 H       1  LIG1        0.2937
     45 N         -14.8512   -1.0943   -1.4159 N.pl3   1  LIG1       -0.3568
     46 H         -14.9309   -0.4223   -2.1677 H       1  LIG1        0.1424
     47 H         -15.2192   -1.9937   -1.6956 H       1  LIG1        0.1424
@<TRIPOS>BOND
     1    12    13    3
     2    46    45    1
     3    13     4    1
     4    47    45    1
     5     7     3    1
     6    45    38    1
     7    41    37    1
     8     3     4   ar
     9     3     2   ar
    10     4     5   ar
    11    38    37   ar
    12    38    39   ar
    13    37    36   ar
    14    21    19    1
    15    33    31    1
    16    42    39    1
    17    39    40   ar
    18     2     8    1
    19     2     1   ar
    20    36    28    1
    21    36    35   ar
    22     5    14    1
    23     5     6   ar
    24    29    28   ar
    25    29    25   ar
    26    18    14   ar
    27    18    17   ar
    28    14    15   ar
    29    28    27   ar
    30    17    25    1
    31    17    16   ar
    32    25    26   ar
    33    15    16   ar
    34    15    19    1
    35    16    24    1
    36    40    35   ar
    37    27    26   ar
    38    27    31    1
    39    19    22    1
    40    19    20    1
    41    26    30    1
    42    35    43    1
    43    24    23    3
    44    31    32    1
    45    31    34    1
    46     1     6   ar
    47     1     9    1
    48    44    43    1
    49     9    10    3
    50    10    11    1
