@<TRIPOS>MOLECULE
mol_data/opt/m06hf/geoms/mol2/6ed13ie-13dd-6ie-.out
 51 54 0 0 0
SMALL
GASTEIGER

@<TRIPOS>ATOM
      1 C          -4.5397   -2.0690   -0.9451 C.ar    1  LIG1        0.1139
      2 C          -3.1827   -2.1467   -1.2804 C.ar    1  LIG1       -0.0266
      3 C          -2.4666   -0.9655   -1.3467 C.ar    1  LIG1       -0.0396
      4 C          -3.1088    0.2378   -1.0474 C.ar    1  LIG1        0.0792
      5 C          -4.4524    0.2123   -0.6398 C.ar    1  LIG1        0.1061
      6 N          -5.1464   -0.9287   -0.6291 N.ar    1  LIG1       -0.2357
      7 H          -1.4288   -0.9527   -1.6511 H       1  LIG1        0.0632
      8 H          -2.7360   -3.1031   -1.5069 H       1  LIG1        0.0646
      9 C          -5.3439   -3.2738   -0.9303 C.1     1  LIG1       -0.0498
     10 C          -5.9852   -4.2882   -0.9319 C.1     1  LIG1       -0.1124
     11 H          -6.5610   -5.1855   -0.9301 H       1  LIG1        0.1232
     12 N          -1.7802    2.4150   -1.4985 N.1     1  LIG1       -0.1908
     13 C          -2.3927    1.4722   -1.2693 C.1     1  LIG1        0.1014
     14 C          -5.2258    1.4030   -0.2525 C.ar    1  LIG1        0.0709
     15 C          -4.9221    2.5898    0.3942 C.ar    1  LIG1       -0.0076
     16 C          -6.1541    3.3001    0.5066 C.ar    1  LIG1        0.0549
     17 C          -7.1499    2.5163   -0.0558 C.ar    1  LIG1        0.0805
     18 N          -6.5726    1.3717   -0.4944 N.ar    1  LIG1       -0.3506
     19 H          -7.0207    0.6035   -0.9740 H       1  LIG1        0.1660
     20 C          -3.6272    3.0637    1.0039 C.3     1  LIG1       -0.0365
     21 H          -3.8583    3.5977    1.9255 H       1  LIG1        0.0279
     22 H          -3.1012    3.7368    0.3265 H       1  LIG1        0.0279
     23 H          -2.9743    2.2222    1.2345 H       1  LIG1        0.0279
     24 C          -6.3475    4.5672    1.1429 C.1     1  LIG1       -0.0672
     25 C          -6.5049    5.6338    1.6729 C.1     1  LIG1       -0.1138
     26 H          -6.6521    6.5889    2.1214 H       1  LIG1        0.1232
     27 C          -8.5880    2.7524   -0.1455 C.ar    1  LIG1        0.0834
     28 C          -9.2993    3.8608   -0.5557 C.ar    1  LIG1        0.0964
     29 C         -10.6853    3.5409   -0.4262 C.ar    1  LIG1        0.0950
     30 C         -10.7750    2.2500    0.0561 C.ar    1  LIG1        0.0676
     31 N          -9.4986    1.8004    0.2127 N.ar    1  LIG1       -0.3509
     32 H          -9.2553    0.8946    0.5878 H       1  LIG1        0.1660
     33 N          -8.3232    6.0685   -1.4656 N.1     1  LIG1       -0.1908
     34 C          -8.7486    5.0854   -1.0551 C.1     1  LIG1        0.1026
     35 N         -12.7024    5.0498   -0.9850 N.1     1  LIG1       -0.1908
     36 C         -11.7995    4.3887   -0.7317 C.1     1  LIG1        0.1026
     37 C         -12.1078    0.7587    1.5878 C.ar    1  LIG1        0.0474
     38 C         -11.9660    1.4299    0.3606 C.ar    1  LIG1        0.0218
     39 C         -12.9852    1.3362   -0.5841 C.ar    1  LIG1       -0.0340
     40 C         -14.1043    0.5602   -0.2938 C.ar    1  LIG1        0.0434
     41 C         -14.1414   -0.0944    0.9418 C.ar    1  LIG1        0.0433
     42 N         -13.1790    0.0087    1.8479 N.ar    1  LIG1       -0.2583
     43 H         -12.9106    1.8558   -1.5309 H       1  LIG1        0.0637
     44 H         -14.9925   -0.7136    1.1971 H       1  LIG1        0.0842
     45 C         -11.0832    0.8516    2.7020 C.3     1  LIG1       -0.0217
     46 H         -10.5828    1.8196    2.7045 H       1  LIG1        0.0293
     47 H         -10.3366    0.0583    2.6045 H       1  LIG1        0.0293
     48 H         -11.6067    0.7001    3.6431 H       1  LIG1        0.0293
     49 C         -15.1904    0.4196   -1.2297 C.1     1  LIG1       -0.0681
     50 C         -16.0981    0.2998   -2.0065 C.1     1  LIG1       -0.1139
     51 H         -16.9046    0.1979   -2.6955 H       1  LIG1        0.1232
@<TRIPOS>BOND
     1    51    50    1
     2    50    49    3
     3     7     3    1
     4    43    39    1
     5     8     2    1
     6    12    13    3
     7    33    34    3
     8     3     2   ar
     9     3     4   ar
    10     2     1   ar
    11    13     4    1
    12    49    40    1
    13    34    28    1
    14     4     5   ar
    15    35    36    3
    16    19    18    1
    17     1     9    1
    18     1     6   ar
    19    10     9    3
    20    10    11    1
    21    36    29    1
    22     5     6   ar
    23     5    14    1
    24    39    40   ar
    25    39    38   ar
    26    28    29   ar
    27    28    27   ar
    28    18    14   ar
    29    18    17   ar
    30    29    30   ar
    31    40    41   ar
    32    14    15   ar
    33    27    17    1
    34    27    31   ar
    35    17    16   ar
    36    30    31   ar
    37    30    38    1
    38    31    32    1
    39    22    20    1
    40    38    37   ar
    41    15    16   ar
    42    15    20    1
    43    16    24    1
    44    41    44    1
    45    41    42   ar
    46    20    23    1
    47    20    21    1
    48    24    25    3
    49    37    42   ar
    50    37    45    1
    51    25    26    1
    52    47    45    1
    53    45    46    1
    54    45    48    1
