@<TRIPOS>MOLECULE
mol_data/opt/m06hf/geoms/mol2/6ed6lf4ee13ee-6ff-13el-13li-4ai.out
 107 114 0 0 0
SMALL
GASTEIGER

@<TRIPOS>ATOM
      1 C          -4.5951   -2.6090    1.2333 C.ar    1  LIG1        0.1139
      2 C          -3.2662   -2.6838    1.6679 C.ar    1  LIG1       -0.0266
      3 C          -2.5846   -1.5003    1.8871 C.ar    1  LIG1       -0.0396
      4 C          -3.2547   -0.2968    1.6663 C.ar    1  LIG1        0.0779
      5 C          -4.5867   -0.3193    1.2244 C.ar    1  LIG1        0.0949
      6 N          -5.2342   -1.4607    1.0173 N.ar    1  LIG1       -0.2370
      7 H          -1.5585   -1.4926    2.2286 H       1  LIG1        0.0632
      8 H          -2.8037   -3.6471    1.8235 H       1  LIG1        0.0646
      9 C          -5.3333   -3.8329    0.9947 C.1     1  LIG1       -0.0498
     10 C          -5.9201   -4.8627    0.8062 C.1     1  LIG1       -0.1124
     11 H          -6.4547   -5.7683    0.6325 H       1  LIG1        0.1232
     12 N          -2.0058    1.9363    2.0946 N.1     1  LIG1       -0.1908
     13 C          -2.5727    0.9567    1.9062 C.1     1  LIG1        0.1013
     14 C          -6.5512    1.2197    1.6042 C.ar    1  LIG1        0.2247
     15 C          -5.3279    0.9447    0.9528 C.ar    1  LIG1        0.0666
     16 C          -4.8648    1.8858    0.0582 C.ar    1  LIG1       -0.0037
     17 C          -5.5971    3.0539   -0.1864 C.ar    1  LIG1        0.1436
     18 C          -6.7882    3.2311    0.5107 C.ar    1  LIG1        0.1173
     19 N          -7.2408    2.3128    1.3810 N.ar    1  LIG1       -0.2086
     20 H          -3.9416    1.7404   -0.4896 H       1  LIG1        0.0663
     21 O          -6.9961    0.3270    2.4962 O.3     1  LIG1       -0.4792
     22 C          -8.2393    0.6143    3.1292 C.3     1  LIG1        0.0804
     23 H          -8.4059   -0.2118    3.8142 H       1  LIG1        0.0660
     24 H          -8.1809    1.5619    3.6635 H       1  LIG1        0.0660
     25 H          -9.0352    0.6682    2.3865 H       1  LIG1        0.0660
     26 O          -5.1449    3.9012   -1.1540 O.3     1  LIG1       -0.5046
     27 H          -5.0172    4.7887   -0.7861 H       1  LIG1        0.2922
     28 C          -7.2748    5.7347    0.2937 C.ar    1  LIG1        0.0347
     29 C          -8.1890    6.7684    0.0832 C.ar    1  LIG1       -0.0354
     30 C          -7.6971    4.3968    0.2966 C.ar    1  LIG1        0.0206
     31 C          -9.5407    6.5049   -0.1272 C.ar    1  LIG1        0.0161
     32 H          -7.8376    7.7908    0.0940 H       1  LIG1        0.0637
     33 C          -9.0546    4.1368    0.1344 C.ar    1  LIG1       -0.0352
     34 C          -9.9743    5.1631   -0.0796 C.ar    1  LIG1        0.0345
     35 H          -9.3992    3.1123    0.1770 H       1  LIG1        0.0637
     36 C          -5.9012    6.0852    0.5735 C.1     1  LIG1       -0.0690
     37 C          -4.7554    6.3736    0.8055 C.1     1  LIG1       -0.1139
     38 H          -3.7462    6.6265    1.0407 H       1  LIG1        0.1232
     39 C         -11.3620    4.7896   -0.2449 C.1     1  LIG1       -0.0690
     40 C         -12.5106    4.4444   -0.3513 C.1     1  LIG1       -0.1139
     41 H         -13.5369    4.1653   -0.4417 H       1  LIG1        0.1232
     42 C         -10.4515    7.6363   -0.3790 C.ar    1  LIG1        0.0649
     43 C         -10.1969    8.8785   -0.9457 C.ar    1  LIG1        0.0659
     44 C         -11.4303    9.6016   -0.9580 C.ar    1  LIG1        0.0660
     45 C         -12.3927    8.7767   -0.4017 C.ar    1  LIG1        0.0689
     46 N         -11.7780    7.6059   -0.0656 N.ar    1  LIG1       -0.3520
     47 H         -12.2325    6.8293    0.4012 H       1  LIG1        0.1660
     48 C          -8.9591    9.3604   -1.4769 C.1     1  LIG1       -0.0663
     49 C          -7.9261    9.7778   -1.9276 C.1     1  LIG1       -0.1138
     50 H          -7.0154   10.1501   -2.3360 H       1  LIG1        0.1232
     51 C         -11.6367   10.9169   -1.4805 C.1     1  LIG1       -0.0663
     52 C         -11.8125   12.0241   -1.9125 C.1     1  LIG1       -0.1138
     53 H         -11.9640   13.0055   -2.2983 H       1  LIG1        0.1232
     54 C         -14.7660    7.9603   -0.3718 C.ar    1  LIG1        0.2225
     55 C         -13.8286    8.9964   -0.1741 C.ar    1  LIG1        0.0644
     56 C         -14.3274   10.2236    0.2261 C.ar    1  LIG1       -0.0037
     57 C         -15.6948   10.4032    0.4564 C.ar    1  LIG1        0.1451
     58 C         -16.5281    9.2897    0.3014 C.ar    1  LIG1        0.1335
     59 N         -16.0385    8.1122   -0.1273 N.ar    1  LIG1       -0.2072
     60 H         -13.6682   11.0696    0.3716 H       1  LIG1        0.0663
     61 O         -14.3891    6.7274   -0.8149 O.3     1  LIG1       -0.4919
     62 H         -13.5780    6.7886   -1.3382 H       1  LIG1        0.2937
     63 O         -16.0833   11.6512    0.7826 O.3     1  LIG1       -0.5045
     64 H         -16.9808   11.7083    1.1473 H       1  LIG1        0.2922
     65 C         -17.9923    9.2552    0.5083 C.ar    1  LIG1        0.0884
     66 C         -18.9518   10.0553    1.1256 C.ar    1  LIG1        0.0938
     67 C         -20.2026    9.3859    0.9893 C.ar    1  LIG1        0.1628
     68 C         -19.9797    8.2062    0.3020 C.ar    1  LIG1        0.1104
     69 N         -18.6409    8.1641    0.0288 N.ar    1  LIG1       -0.3477
     70 H         -18.1066    7.3937   -0.3551 H       1  LIG1        0.1661
     71 C         -18.7920   11.2882    1.8308 C.1     1  LIG1       -0.0638
     72 C         -18.6649   12.3275    2.4265 C.1     1  LIG1       -0.1137
     73 H         -18.5647   13.2407    2.9667 H       1  LIG1        0.1232
     74 O         -21.3707    9.8453    1.5008 O.3     1  LIG1       -0.4917
     75 C         -22.3395   10.2191    0.5195 C.3     1  LIG1        0.0789
     76 H         -23.2045   10.5747    1.0732 H       1  LIG1        0.0660
     77 H         -21.9345   11.0158   -0.1080 H       1  LIG1        0.0660
     78 H         -22.6168    9.3558   -0.0848 H       1  LIG1        0.0660
     79 C         -20.8953    7.1521   -0.1101 C.ar    1  LIG1        0.1095
     80 C         -22.1259    6.7679    0.3891 C.ar    1  LIG1        0.1503
     81 C         -22.6107    5.6750   -0.3819 C.ar    1  LIG1        0.0171
     82 C         -21.6496    5.4228   -1.3410 C.ar    1  LIG1        0.0535
     83 N         -20.6173    6.3049   -1.1539 N.ar    1  LIG1       -0.3498
     84 H         -19.8962    6.4620   -1.8415 H       1  LIG1        0.1661
     85 O         -22.8017    7.3193    1.4358 O.3     1  LIG1       -0.4927
     86 C         -22.1763    7.1377    2.7052 C.3     1  LIG1        0.0789
     87 H         -22.8264    7.6168    3.4333 H       1  LIG1        0.0660
     88 H         -22.0837    6.0707    2.9202 H       1  LIG1        0.0660
     89 H         -21.1963    7.6146    2.7198 H       1  LIG1        0.0660
     90 C         -23.8973    4.9397   -0.1060 C.3     1  LIG1       -0.0342
     91 H         -23.8111    3.8948   -0.4044 H       1  LIG1        0.0279
     92 H         -24.7339    5.3918   -0.6425 H       1  LIG1        0.0279
     93 H         -24.1165    4.9947    0.9606 H       1  LIG1        0.0279
     94 C         -22.7447    4.0704   -3.1248 C.ar    1  LIG1       -0.0526
     95 C         -22.6777    3.1099   -4.1300 C.ar    1  LIG1       -0.0609
     96 C         -21.5943    4.4077   -2.4099 C.ar    1  LIG1       -0.0011
     97 C         -21.4682    2.4959   -4.4352 C.ar    1  LIG1       -0.0588
     98 H         -23.5701    2.8498   -4.6844 H       1  LIG1        0.0618
     99 C         -20.3839    3.7757   -2.7207 C.ar    1  LIG1       -0.0497
    100 C         -20.3049    2.8255   -3.7340 C.ar    1  LIG1       -0.0498
    101 H         -19.4989    4.0120   -2.1398 H       1  LIG1        0.0627
    102 H         -21.4219    1.7522   -5.2226 H       1  LIG1        0.0620
    103 H         -23.6758    4.5757   -2.9048 H       1  LIG1        0.0624
    104 C         -18.9909    2.1432   -4.0706 C.3     1  LIG1       -0.0397
    105 H         -18.1999    2.4754   -3.3992 H       1  LIG1        0.0278
    106 H         -18.6968    2.3744   -5.0957 H       1  LIG1        0.0278
    107 H         -19.0927    1.0609   -3.9795 H       1  LIG1        0.0278
@<TRIPOS>BOND
     1   102    97    1
     2   106   104    1
     3    98    95    1
     4    97    95   ar
     5    97   100   ar
     6    95    94   ar
     7   104   107    1
     8   104   100    1
     9   104   105    1
    10   100    99   ar
    11    94   103    1
    12    94    96   ar
    13    99    96   ar
    14    99   101    1
    15    96    82    1
    16    50    49    1
    17    53    52    1
    18    49    48    3
    19    52    51    3
    20    84    83    1
    21    51    44    1
    22    48    43    1
    23    82    83   ar
    24    82    81   ar
    25    62    61    1
    26    26    27    1
    27    26    17    1
    28    83    79   ar
    29    44    43   ar
    30    44    45   ar
    31    43    42   ar
    32    61    54    1
    33    92    90    1
    34    20    16    1
    35    41    40    1
    36    91    90    1
    37    45    55    1
    38    45    46   ar
    39    81    90    1
    40    81    80   ar
    41    42    31    1
    42    42    46   ar
    43    54    55   ar
    44    54    59   ar
    45    70    69    1
    46    40    39    3
    47    39    34    1
    48    17    16   ar
    49    17    18   ar
    50    55    56   ar
    51    59    58   ar
    52    31    34   ar
    53    31    29   ar
    54    79    68    1
    55    79    80   ar
    56    77    75    1
    57    90    93    1
    58    78    75    1
    59    34    33   ar
    60    46    47    1
    61    69    68   ar
    62    69    65   ar
    63    16    15   ar
    64    29    32    1
    65    29    28   ar
    66    33    35    1
    67    33    30   ar
    68    56    60    1
    69    56    57   ar
    70    28    30   ar
    71    28    36    1
    72    30    18    1
    73    58    57   ar
    74    58    65    1
    75    68    67   ar
    76    80    85    1
    77    57    63    1
    78    65    66   ar
    79    18    19   ar
    80    75    76    1
    81    75    74    1
    82    36    37    3
    83    11    10    1
    84    63    64    1
    85    37    38    1
    86    10     9    3
    87    15     5    1
    88    15    14   ar
    89    67    66   ar
    90    67    74    1
    91     9     1    1
    92     6     5   ar
    93     6     1   ar
    94    66    71    1
    95     5     4   ar
    96     1     2   ar
    97    19    14   ar
    98    85    86    1
    99    14    21    1
   100     4     3   ar
   101     4    13    1
   102     2     8    1
   103     2     3   ar
   104    71    72    3
   105     3     7    1
   106    13    12    3
   107    25    22    1
   108    72    73    1
   109    21    22    1
   110    86    89    1
   111    86    88    1
   112    86    87    1
   113    22    24    1
   114    22    23    1
