@<TRIPOS>MOLECULE
mol_data/opt/m06hf/geoms/mol2/6ed6ed6ed.out
 38 40 0 0 0
SMALL
GASTEIGER

@<TRIPOS>ATOM
      1 C          -4.1575   -1.9306   -1.0106 C.ar    1  LIG1        0.1139
      2 C          -3.1597   -2.2542   -0.0826 C.ar    1  LIG1       -0.0266
      3 C          -2.9184   -1.3719    0.9556 C.ar    1  LIG1       -0.0396
      4 C          -3.6794   -0.2044    1.0266 C.ar    1  LIG1        0.0778
      5 C          -4.6529    0.0373    0.0464 C.ar    1  LIG1        0.0924
      6 N          -4.8800   -0.8125   -0.9463 N.ar    1  LIG1       -0.2370
      7 H          -2.1651   -1.5709    1.7053 H       1  LIG1        0.0632
      8 H          -2.6036   -3.1739   -0.1910 H       1  LIG1        0.0646
      9 C          -4.4335   -2.8352   -2.1064 C.1     1  LIG1       -0.0498
     10 C          -4.6397   -3.6030   -3.0052 C.1     1  LIG1       -0.1124
     11 H          -4.8325   -4.2753   -3.8098 H       1  LIG1        0.1232
     12 N          -3.2874    1.4733    2.9650 N.1     1  LIG1       -0.1908
     13 C          -3.4697    0.7328    2.1079 C.1     1  LIG1        0.1013
     14 C          -6.8864    1.2118    0.0705 C.ar    1  LIG1        0.1231
     15 C          -5.4818    1.2795    0.0619 C.ar    1  LIG1        0.0367
     16 C          -4.8905    2.5340    0.0464 C.ar    1  LIG1       -0.0304
     17 C          -5.7067    3.6624    0.0182 C.ar    1  LIG1        0.0785
     18 C          -7.0982    3.4956    0.0100 C.ar    1  LIG1        0.0924
     19 N          -7.6603    2.2948    0.0415 N.ar    1  LIG1       -0.2364
     20 H          -3.8136    2.6457    0.0501 H       1  LIG1        0.0638
     21 C          -7.5638   -0.0642    0.1424 C.1     1  LIG1       -0.0491
     22 C          -8.1303   -1.1190    0.2185 C.1     1  LIG1       -0.1124
     23 H          -8.6403   -2.0534    0.2768 H       1  LIG1        0.1232
     24 N          -4.6322    6.0212   -0.0473 N.1     1  LIG1       -0.1908
     25 C          -5.1146    4.9812   -0.0059 C.1     1  LIG1        0.1013
     26 C          -9.0076    4.8477    0.9451 C.ar    1  LIG1        0.1224
     27 C          -8.0240    4.6652   -0.0419 C.ar    1  LIG1        0.0367
     28 C          -7.9482    5.5897   -1.0753 C.ar    1  LIG1       -0.0310
     29 C          -8.8636    6.6379   -1.0950 C.ar    1  LIG1        0.0705
     30 C          -9.8164    6.7267   -0.0769 C.ar    1  LIG1        0.0464
     31 N          -9.8801    5.8569    0.9190 N.ar    1  LIG1       -0.2448
     32 H          -7.2053    5.4965   -1.8571 H       1  LIG1        0.0638
     33 H         -10.5417    7.5303   -0.0770 H       1  LIG1        0.0843
     34 C          -9.0905    3.9495    2.0761 C.1     1  LIG1       -0.0491
     35 C          -9.1470    3.2195    3.0270 C.1     1  LIG1       -0.1124
     36 H          -9.2054    2.5735    3.8730 H       1  LIG1        0.1232
     37 N          -8.8475    8.3930   -3.0034 N.1     1  LIG1       -0.1908
     38 C          -8.8493    7.6178   -2.1580 C.1     1  LIG1        0.1007
@<TRIPOS>BOND
     1    11    10    1
     2    10     9    3
     3    37    38    3
     4    38    29    1
     5     9     1    1
     6    32    28    1
     7    29    28   ar
     8    29    30   ar
     9    28    27   ar
    10     1     6   ar
    11     1     2   ar
    12     6     5   ar
    13     8     2    1
    14     2     3   ar
    15    33    30    1
    16    30    31   ar
    17    24    25    3
    18    27    18    1
    19    27    26   ar
    20    25    17    1
    21    18    17   ar
    22    18    19   ar
    23    17    16   ar
    24    19    14   ar
    25    16    20    1
    26    16    15   ar
    27     5    15    1
    28     5     4   ar
    29    15    14   ar
    30    14    21    1
    31    21    22    3
    32    22    23    1
    33    31    26   ar
    34    26    34    1
    35     3     4   ar
    36     3     7    1
    37     4    13    1
    38    34    35    3
    39    13    12    3
    40    35    36    1
