@<TRIPOS>MOLECULE
mol_data/opt/m06hf/geoms/mol2/6ed6ed6ed6ed.out
 50 53 0 0 0
SMALL
GASTEIGER

@<TRIPOS>ATOM
      1 C          -4.3298   -2.1943   -0.5762 C.ar    1  LIG1        0.1139
      2 C          -3.0336   -2.2811   -0.0533 C.ar    1  LIG1       -0.0266
      3 C          -2.4795   -1.1494    0.5183 C.ar    1  LIG1       -0.0396
      4 C          -3.2391    0.0207    0.5464 C.ar    1  LIG1        0.0778
      5 C          -4.5266    0.0133   -0.0089 C.ar    1  LIG1        0.0924
      6 N          -5.0520   -1.0744   -0.5568 N.ar    1  LIG1       -0.2370
      7 H          -1.4854   -1.1579    0.9444 H       1  LIG1        0.0632
      8 H          -2.4967   -3.2172   -0.1026 H       1  LIG1        0.0646
      9 C          -4.9368   -3.3645   -1.1738 C.1     1  LIG1       -0.0498
     10 C          -5.4131   -4.3533   -1.6590 C.1     1  LIG1       -0.1124
     11 H          -5.8481   -5.2244   -2.0931 H       1  LIG1        0.1232
     12 N          -2.2707    2.1597    1.6478 N.1     1  LIG1       -0.1908
     13 C          -2.7055    1.2155    1.1624 C.1     1  LIG1        0.1013
     14 C          -6.6687    1.2353    0.5331 C.ar    1  LIG1        0.1231
     15 C          -5.3747    1.2426   -0.0184 C.ar    1  LIG1        0.0367
     16 C          -4.9159    2.4225   -0.5854 C.ar    1  LIG1       -0.0304
     17 C          -5.7559    3.5336   -0.6023 C.ar    1  LIG1        0.0785
     18 C          -7.0329    3.4288   -0.0343 C.ar    1  LIG1        0.0924
     19 N          -7.4621    2.3046    0.5223 N.ar    1  LIG1       -0.2364
     20 H          -3.9291    2.4857   -1.0259 H       1  LIG1        0.0638
     21 C          -7.1917    0.0543    1.1836 C.1     1  LIG1       -0.0491
     22 C          -7.6265   -0.9162    1.7398 C.1     1  LIG1       -0.1124
     23 H          -8.0220   -1.7778    2.2282 H       1  LIG1        0.1232
     24 N          -4.9568    5.7296   -1.7260 N.1     1  LIG1       -0.1908
     25 C          -5.3163    4.7605   -1.2281 C.1     1  LIG1        0.1013
     26 C          -9.2728    4.4665   -0.5498 C.ar    1  LIG1        0.1231
     27 C          -7.9763    4.5853   -0.0177 C.ar    1  LIG1        0.0367
     28 C          -7.6070    5.8025    0.5359 C.ar    1  LIG1       -0.0304
     29 C          -8.5371    6.8391    0.5588 C.ar    1  LIG1        0.0785
     30 C          -9.8110    6.6240    0.0145 C.ar    1  LIG1        0.0924
     31 N         -10.1540    5.4645   -0.5299 N.ar    1  LIG1       -0.2364
     32 H          -6.6222    5.9502    0.9604 H       1  LIG1        0.0638
     33 C          -9.6982    3.2423   -1.1920 C.1     1  LIG1       -0.0491
     34 C         -10.0396    2.2323   -1.7423 C.1     1  LIG1       -0.1124
     35 H         -10.3483    1.3335   -2.2258 H       1  LIG1        0.1232
     36 N          -7.9071    9.1142    1.6312 N.1     1  LIG1       -0.1908
     37 C          -8.1919    8.1084    1.1590 C.1     1  LIG1        0.1013
     38 C         -12.0979    7.4889    0.6211 C.ar    1  LIG1        0.1224
     39 C         -10.8475    7.6988    0.0151 C.ar    1  LIG1        0.0367
     40 C         -10.6052    8.9253   -0.5897 C.ar    1  LIG1       -0.0310
     41 C         -11.6187    9.8794   -0.5796 C.ar    1  LIG1        0.0705
     42 C         -12.8334    9.5738    0.0396 C.ar    1  LIG1        0.0464
     43 N         -13.0628    8.4106    0.6284 N.ar    1  LIG1       -0.2448
     44 H          -9.6562    9.1380   -1.0655 H       1  LIG1        0.0638
     45 H         -13.6352   10.3014    0.0559 H       1  LIG1        0.0843
     46 C         -12.3814    6.2465    1.3063 C.1     1  LIG1       -0.0491
     47 C         -12.6092    5.2220    1.8875 C.1     1  LIG1       -0.1124
     48 H         -12.8166    4.3099    2.3984 H       1  LIG1        0.1232
     49 N         -11.2913   12.1965   -1.6961 N.1     1  LIG1       -0.1908
     50 C         -11.4319   11.1711   -1.2018 C.1     1  LIG1        0.1007
@<TRIPOS>BOND
     1    35    34    1
     2    11    10    1
     3    34    33    3
     4    24    25    3
     5    49    50    3
     6    10     9    3
     7    25    17    1
     8    50    41    1
     9    33    26    1
    10     9     1    1
    11    44    40    1
    12    20    16    1
    13    17    16   ar
    14    17    18   ar
    15    40    41   ar
    16    40    39   ar
    17    16    15   ar
    18    41    42   ar
    19     1     6   ar
    20     1     2   ar
    21     6     5   ar
    22    26    31   ar
    23    26    27   ar
    24    31    30   ar
    25     8     2    1
    26     2     3   ar
    27    18    27    1
    28    18    19   ar
    29    15     5    1
    30    15    14   ar
    31    27    28   ar
    32     5     4   ar
    33    30    39    1
    34    30    29   ar
    35    39    38   ar
    36    42    45    1
    37    42    43   ar
    38     3     4   ar
    39     3     7    1
    40    19    14   ar
    41    14    21    1
    42    28    29   ar
    43    28    32    1
    44     4    13    1
    45    29    37    1
    46    38    43   ar
    47    38    46    1
    48    37    36    3
    49    13    12    3
    50    21    22    3
    51    46    47    3
    52    22    23    1
    53    47    48    1
