@<TRIPOS>MOLECULE
mol_data/opt/m06hf/geoms/mol2/6ed6ed.out
 26 27 0 0 0
SMALL
GASTEIGER

@<TRIPOS>ATOM
      1 C          -4.4539   -2.0357   -0.5408 C.ar    1  LIG1        0.1139
      2 C          -3.1777   -2.1374    0.0260 C.ar    1  LIG1       -0.0266
      3 C          -2.6305   -1.0112    0.6146 C.ar    1  LIG1       -0.0396
      4 C          -3.3761    0.1679    0.6143 C.ar    1  LIG1        0.0778
      5 C          -4.6449    0.1758    0.0161 C.ar    1  LIG1        0.0924
      6 N          -5.1632   -0.9075   -0.5477 N.ar    1  LIG1       -0.2370
      7 H          -1.6521   -1.0313    1.0750 H       1  LIG1        0.0632
      8 H          -2.6493   -3.0787   -0.0039 H       1  LIG1        0.0646
      9 C          -5.0539   -3.1995   -1.1588 C.1     1  LIG1       -0.0498
     10 C          -5.5263   -4.1820   -1.6603 C.1     1  LIG1       -0.1124
     11 H          -5.9561   -5.0479   -2.1097 H       1  LIG1        0.1232
     12 N          -2.4077    2.2957    1.7377 N.1     1  LIG1       -0.1908
     13 C          -2.8457    1.3577    1.2429 C.1     1  LIG1        0.1013
     14 C          -6.7757    1.4339    0.5101 C.ar    1  LIG1        0.1224
     15 C          -5.4750    1.4166   -0.0234 C.ar    1  LIG1        0.0367
     16 C          -4.9854    2.5824   -0.5980 C.ar    1  LIG1       -0.0310
     17 C          -5.8105    3.7023   -0.6348 C.ar    1  LIG1        0.0705
     18 C          -7.0943    3.6177   -0.0893 C.ar    1  LIG1        0.0464
     19 N          -7.5597    2.5129    0.4721 N.ar    1  LIG1       -0.2448
     20 H          -3.9884    2.6228   -1.0178 H       1  LIG1        0.0638
     21 H          -7.7531    4.4765   -0.1102 H       1  LIG1        0.0843
     22 C          -7.3156    0.2648    1.1699 C.1     1  LIG1       -0.0491
     23 C          -7.7580   -0.6976    1.7345 C.1     1  LIG1       -0.1124
     24 H          -8.1573   -1.5534    2.2298 H       1  LIG1        0.1232
     25 N          -5.0046    5.9154   -1.7183 N.1     1  LIG1       -0.1908
     26 C          -5.3591    4.9372   -1.2359 C.1     1  LIG1        0.1007
@<TRIPOS>BOND
     1    11    10    1
     2    25    26    3
     3    10     9    3
     4    26    17    1
     5     9     1    1
     6    20    16    1
     7    17    16   ar
     8    17    18   ar
     9    16    15   ar
    10     6     1   ar
    11     6     5   ar
    12     1     2   ar
    13    21    18    1
    14    18    19   ar
    15    15     5    1
    16    15    14   ar
    17     8     2    1
    18     5     4   ar
    19     2     3   ar
    20    19    14   ar
    21    14    22    1
    22     4     3   ar
    23     4    13    1
    24     3     7    1
    25    22    23    3
    26    13    12    3
    27    23    24    1
