@<TRIPOS>MOLECULE
mol_data/opt/m06hf/geoms/mol2/6ee.out
 15 15 0 0 0
SMALL
GASTEIGER

@<TRIPOS>ATOM
      1 C          -4.5919   -2.0045    0.0000 C.ar    1  LIG1        0.1132
      2 C          -3.1944   -2.0231   -0.0000 C.ar    1  LIG1       -0.0267
      3 C          -2.5169   -0.8133   -0.0002 C.ar    1  LIG1       -0.0422
      4 C          -3.2583    0.3688   -0.0003 C.ar    1  LIG1        0.0428
      5 C          -4.6566    0.2749   -0.0002 C.ar    1  LIG1        0.0443
      6 N          -5.3094   -0.8778   -0.0001 N.ar    1  LIG1       -0.2455
      7 H          -1.4363   -0.7741   -0.0002 H       1  LIG1        0.0631
      8 H          -2.6710   -2.9681    0.0001 H       1  LIG1        0.0646
      9 H          -5.2549    1.1772   -0.0003 H       1  LIG1        0.0842
     10 C          -5.3203   -3.2582    0.0002 C.1     1  LIG1       -0.0498
     11 C          -5.8959   -4.3116    0.0003 C.1     1  LIG1       -0.1124
     12 H          -6.4188   -5.2402    0.0006 H       1  LIG1        0.1232
     13 C          -2.6183    1.6598   -0.0005 C.1     1  LIG1       -0.0681
     14 C          -2.0867    2.7371   -0.0006 C.1     1  LIG1       -0.1139
     15 H          -1.6170    3.6938   -0.0005 H       1  LIG1        0.1232
@<TRIPOS>BOND
     1    14    15    1
     2    14    13    3
     3    13     4    1
     4     9     5    1
     5     4     5   ar
     6     4     3   ar
     7     7     3    1
     8     5     6   ar
     9     3     2   ar
    10     6     1   ar
    11     2     1   ar
    12     2     8    1
    13     1    10    1
    14    10    11    3
    15    11    12    1
