@<TRIPOS>MOLECULE
mol_data/opt/m06hf/geoms/mol2/6ee4fe-12dd13dh-.out
 48 51 0 0 0
SMALL
GASTEIGER

@<TRIPOS>ATOM
      1 C          -3.9292   -1.9465   -0.7110 C.ar    1  LIG1        0.1139
      2 C          -2.8955   -2.0713    0.2211 C.ar    1  LIG1       -0.0266
      3 C          -2.6841   -1.0278    1.1072 C.ar    1  LIG1       -0.0416
      4 C          -3.4864    0.1120    1.0249 C.ar    1  LIG1        0.0508
      5 C          -4.4721    0.1553    0.0217 C.ar    1  LIG1        0.0912
      6 N          -4.6964   -0.8595   -0.8042 N.ar    1  LIG1       -0.2371
      7 H          -1.9177   -1.0830    1.8681 H       1  LIG1        0.0631
      8 H          -2.2989   -2.9715    0.2453 H       1  LIG1        0.0646
      9 C          -4.1994   -3.0319   -1.6324 C.1     1  LIG1       -0.0498
     10 C          -4.3997   -3.9450   -2.3858 C.1     1  LIG1       -0.1124
     11 H          -4.5864   -4.7454   -3.0644 H       1  LIG1        0.1232
     12 C          -3.3330    1.1739    1.9857 C.1     1  LIG1       -0.0675
     13 C          -3.2021    2.0264    2.8219 C.1     1  LIG1       -0.1138
     14 H          -3.0892    2.7840    3.5625 H       1  LIG1        0.1232
     15 C          -4.8625    2.6219   -0.3490 C.ar    1  LIG1        0.1268
     16 C          -5.7313    3.7018   -0.4866 C.ar    1  LIG1       -0.0076
     17 C          -5.3742    1.3347   -0.1416 C.ar    1  LIG1        0.0442
     18 C          -7.1086    3.5027   -0.4657 C.ar    1  LIG1        0.0374
     19 H          -5.3314    4.7006   -0.6154 H       1  LIG1        0.0662
     20 C          -6.7490    1.1429   -0.1546 C.ar    1  LIG1       -0.0329
     21 C          -7.6377    2.2089   -0.3147 C.ar    1  LIG1        0.0362
     22 H          -7.1363    0.1379   -0.0531 H       1  LIG1        0.0638
     23 O          -3.5244    2.7638   -0.4215 O.3     1  LIG1       -0.5061
     24 H          -3.2729    3.6776   -0.5950 H       1  LIG1        0.2922
     25 C          -9.0512    1.9116   -0.3815 C.1     1  LIG1       -0.0689
     26 C         -10.2023    1.5718   -0.4683 C.1     1  LIG1       -0.1139
     27 H         -11.2078    1.2365   -0.5843 H       1  LIG1        0.1232
     28 C          -7.9908    4.6662   -0.6222 C.ar    1  LIG1        0.1556
     29 C          -7.8864    5.8387   -1.3137 C.ar    1  LIG1        0.1155
     30 C          -9.1140    6.5638   -1.0864 C.ar    1  LIG1        0.1169
     31 C          -9.8589    5.7742   -0.2582 C.ar    1  LIG1        0.1717
     32 O          -9.1715    4.6498    0.0177 O.2     1  LIG1       -0.4506
     33 N          -5.8829    6.5637   -2.7679 N.1     1  LIG1       -0.1907
     34 C          -6.7846    6.2474   -2.1327 C.1     1  LIG1        0.1043
     35 N          -9.7540    8.7877   -2.2202 N.1     1  LIG1       -0.1907
     36 C          -9.4818    7.8043   -1.6970 C.1     1  LIG1        0.1043
     37 C         -11.1820    5.8179    0.3325 C.ar    1  LIG1        0.1028
     38 C         -12.0723    6.8435    0.6219 C.ar    1  LIG1        0.1006
     39 C         -13.2262    6.2530    1.2150 C.ar    1  LIG1        0.0604
     40 C         -12.9897    4.8951    1.2657 C.ar    1  LIG1        0.0244
     41 N         -11.7562    4.6585    0.7262 N.ar    1  LIG1       -0.3556
     42 H         -11.3014    3.7580    0.6331 H       1  LIG1        0.1655
     43 H         -13.5984    4.1001    1.6580 H       1  LIG1        0.0826
     44 N         -11.8307    9.3954    0.3603 N.1     1  LIG1       -0.1907
     45 C         -11.8974    8.2524    0.4514 C.1     1  LIG1        0.1032
     46 N         -14.3279    6.9540    1.7073 N.pl3   1  LIG1       -0.3558
     47 H         -14.3574    7.9160    1.3916 H       1  LIG1        0.1424
     48 H         -15.2128    6.4907    1.5519 H       1  LIG1        0.1424
@<TRIPOS>BOND
     1    11    10    1
     2    33    34    3
     3    10     9    3
     4    35    36    3
     5    34    29    1
     6    36    30    1
     7     9     1    1
     8    29    30   ar
     9    29    28   ar
    10    30    31   ar
    11     6     1   ar
    12     6     5   ar
    13     1     2   ar
    14    28    18    1
    15    28    32   ar
    16    19    16    1
    17    24    23    1
    18    27    26    1
    19    16    18   ar
    20    16    15   ar
    21    26    25    3
    22    18    21   ar
    23    23    15    1
    24    25    21    1
    25    15    17   ar
    26    21    20   ar
    27    31    32   ar
    28    31    37    1
    29    20    17   ar
    30    20    22    1
    31    17     5    1
    32     5     4   ar
    33     2     8    1
    34     2     3   ar
    35    37    38   ar
    36    37    41   ar
    37    44    45    3
    38    45    38    1
    39    38    39   ar
    40    42    41    1
    41    41    40   ar
    42     4     3   ar
    43     4    12    1
    44     3     7    1
    45    39    40   ar
    46    39    46    1
    47    40    43    1
    48    47    46    1
    49    48    46    1
    50    12    13    3
    51    13    14    1
