@<TRIPOS>MOLECULE
mol_data/opt/m06hf/geoms/mol2/6ee4ih13fa-4ld-.out
 54 57 0 0 0
SMALL
GASTEIGER

@<TRIPOS>ATOM
      1 C          -4.2419   -1.9945    1.1754 C.ar    1  LIG1        0.1139
      2 C          -3.0289   -2.2603    0.5351 C.ar    1  LIG1       -0.0266
      3 C          -2.5274   -1.3029   -0.3309 C.ar    1  LIG1       -0.0416
      4 C          -3.2353   -0.1136   -0.5156 C.ar    1  LIG1        0.0507
      5 C          -4.4300    0.0775    0.2059 C.ar    1  LIG1        0.0880
      6 N          -4.9209   -0.8577    1.0139 N.ar    1  LIG1       -0.2372
      7 H          -1.6066   -1.4648   -0.8747 H       1  LIG1        0.0631
      8 H          -2.5200   -3.1962    0.7121 H       1  LIG1        0.0646
      9 C          -4.8120   -2.9897    2.0627 C.1     1  LIG1       -0.0498
     10 C          -5.2563   -3.8337    2.7917 C.1     1  LIG1       -0.1124
     11 H          -5.6606   -4.5747    3.4423 H       1  LIG1        0.1232
     12 C          -2.7647    0.8639   -1.4641 C.1     1  LIG1       -0.0675
     13 C          -2.3549    1.6524   -2.2731 C.1     1  LIG1       -0.1138
     14 H          -2.0058    2.3594   -2.9898 H       1  LIG1        0.1232
     15 C          -4.7460    2.5820    0.4377 C.ar    1  LIG1       -0.0405
     16 C          -5.5807    3.6851    0.2716 C.ar    1  LIG1       -0.0472
     17 C          -5.2391    1.3277    0.0615 C.ar    1  LIG1        0.0063
     18 C          -6.8709    3.5784   -0.2538 C.ar    1  LIG1        0.0228
     19 H          -5.2349    4.6645    0.5776 H       1  LIG1        0.0627
     20 C          -6.5271    1.2010   -0.4541 C.ar    1  LIG1       -0.0309
     21 C          -7.3448    2.3094   -0.6339 C.ar    1  LIG1        0.0345
     22 H          -6.8870    0.2160   -0.7283 H       1  LIG1        0.0643
     23 C          -3.3730    2.7663    1.0604 C.3     1  LIG1       -0.0391
     24 H          -3.3769    3.6516    1.6957 H       1  LIG1        0.0278
     25 H          -2.6158    2.8922    0.2851 H       1  LIG1        0.0278
     26 H          -3.1043    1.9019    1.6688 H       1  LIG1        0.0278
     27 N          -8.6590    2.1686   -1.1769 N.pl3   1  LIG1       -0.3574
     28 H          -8.7360    2.6641   -2.0635 H       1  LIG1        0.1423
     29 H          -8.8913    1.1931   -1.3275 H       1  LIG1        0.1423
     30 C          -7.7111    4.7819   -0.3546 C.ar    1  LIG1        0.0907
     31 C          -7.3705    6.1254   -0.3718 C.ar    1  LIG1        0.1427
     32 C          -8.5580    6.8898   -0.3922 C.ar    1  LIG1        0.0059
     33 C          -9.6102    5.9850   -0.3946 C.ar    1  LIG1        0.0540
     34 N          -9.0805    4.7350   -0.3687 N.ar    1  LIG1       -0.3511
     35 H          -9.5711    3.8491   -0.3074 H       1  LIG1        0.1660
     36 O          -6.0838    6.5877   -0.3547 O.3     1  LIG1       -0.5046
     37 H          -6.0740    7.5120   -0.6215 H       1  LIG1        0.2922
     38 H          -8.6558    7.9622   -0.4309 H       1  LIG1        0.0675
     39 C         -11.6596    7.3867   -0.0499 C.ar    1  LIG1        0.1292
     40 C         -13.0313    7.5922   -0.1607 C.ar    1  LIG1       -0.0181
     41 C         -11.0629    6.1951   -0.4940 C.ar    1  LIG1        0.0413
     42 C         -13.8464    6.6124   -0.7112 C.ar    1  LIG1       -0.0409
     43 H         -13.4345    8.5334    0.1879 H       1  LIG1        0.0655
     44 C         -11.8879    5.2182   -1.0536 C.ar    1  LIG1       -0.0317
     45 C         -13.2638    5.4233   -1.1508 C.ar    1  LIG1        0.0526
     46 H         -11.4631    4.3019   -1.4429 H       1  LIG1        0.0638
     47 H         -14.9129    6.7606   -0.8062 H       1  LIG1        0.0631
     48 O         -10.8942    8.3834    0.4909 O.3     1  LIG1       -0.4945
     49 C         -10.6102    8.1970    1.8823 C.3     1  LIG1        0.0788
     50 H          -9.9819    9.0340    2.1766 H       1  LIG1        0.0660
     51 H         -11.5413    8.2059    2.4520 H       1  LIG1        0.0660
     52 H         -10.0791    7.2567    2.0354 H       1  LIG1        0.0660
     53 N         -14.7466    3.5667   -2.1992 N.1     1  LIG1       -0.1909
     54 C         -14.0929    4.3889   -1.7376 C.1     1  LIG1        0.0992
@<TRIPOS>BOND
     1    14    13    1
     2    13    12    3
     3    53    54    3
     4    28    27    1
     5    54    45    1
     6    12     4    1
     7    46    44    1
     8    29    27    1
     9    27    21    1
    10    45    44   ar
    11    45    42   ar
    12    44    41   ar
    13     7     3    1
    14    47    42    1
    15    22    20    1
    16    42    40   ar
    17    21    20   ar
    18    21    18   ar
    19    37    36    1
    20     4     3   ar
    21     4     5   ar
    22    41    33    1
    23    41    39   ar
    24    20    17   ar
    25    38    32    1
    26    33    32   ar
    27    33    34   ar
    28    32    31   ar
    29    31    36    1
    30    31    30   ar
    31    34    30   ar
    32    34    35    1
    33    30    18    1
    34     3     2   ar
    35    18    16   ar
    36    40    39   ar
    37    40    43    1
    38    39    48    1
    39    17     5    1
    40    17    15   ar
    41     5     6   ar
    42    16    15   ar
    43    16    19    1
    44    25    23    1
    45    15    23    1
    46    48    49    1
    47     2     8    1
    48     2     1   ar
    49     6     1   ar
    50    23    26    1
    51    23    24    1
    52     1     9    1
    53    49    52    1
    54    49    50    1
    55    49    51    1
    56     9    10    3
    57    10    11    1
