@<TRIPOS>MOLECULE
mol_data/opt/m06hf/geoms/mol2/6ee6fh12da-13id4fa13de-6lh13aa.out
 92 99 0 0 0
SMALL
GASTEIGER

@<TRIPOS>ATOM
      1 C          -4.1742   -1.2914    2.4940 C.ar    1  LIG1        0.1139
      2 C          -2.8209   -1.2287    2.8223 C.ar    1  LIG1       -0.0266
      3 C          -2.1484   -0.0506    2.5448 C.ar    1  LIG1       -0.0416
      4 C          -2.8256    1.0371    1.9860 C.ar    1  LIG1        0.0509
      5 C          -4.2124    0.9116    1.7466 C.ar    1  LIG1        0.0928
      6 N          -4.8273   -0.2505    1.9808 N.ar    1  LIG1       -0.2370
      7 H          -1.0888    0.0433    2.7401 H       1  LIG1        0.0631
      8 H          -2.3265   -2.0865    3.2526 H       1  LIG1        0.0646
      9 C          -4.9277   -2.5084    2.7023 C.1     1  LIG1       -0.0498
     10 C          -5.5378   -3.5257    2.8837 C.1     1  LIG1       -0.1124
     11 H          -6.0889   -4.4241    3.0440 H       1  LIG1        0.1232
     12 C          -2.0426    2.1943    1.6307 C.1     1  LIG1       -0.0675
     13 C          -1.3168    3.1076    1.3411 C.1     1  LIG1       -0.1138
     14 H          -0.6821    3.9196    1.0682 H       1  LIG1        0.1232
     15 C          -6.2973    1.6894    0.5399 C.ar    1  LIG1        0.2225
     16 C          -5.0840    1.9969    1.2208 C.ar    1  LIG1        0.0647
     17 C          -4.7789    3.3394    1.3928 C.ar    1  LIG1       -0.0245
     18 C          -5.5945    4.3503    0.8771 C.ar    1  LIG1        0.0549
     19 C          -6.7187    3.9173    0.1641 C.ar    1  LIG1        0.1316
     20 N          -7.0486    2.6343    0.0146 N.ar    1  LIG1       -0.2074
     21 H          -3.8962    3.6234    1.9496 H       1  LIG1        0.0645
     22 O          -6.7392    0.4416    0.3982 O.3     1  LIG1       -0.4919
     23 H          -6.2138   -0.1310    1.0096 H       1  LIG1        0.2937
     24 N          -5.3507    5.7121    1.1464 N.pl3   1  LIG1       -0.3562
     25 H          -4.6791    5.8356    1.8941 H       1  LIG1        0.1424
     26 H          -5.0707    6.2571    0.3380 H       1  LIG1        0.1424
     27 C          -7.6964    4.8569   -0.4233 C.ar    1  LIG1        0.1731
     28 C          -7.6288    6.0577   -1.0756 C.ar    1  LIG1        0.0996
     29 C          -8.9716    6.4319   -1.4280 C.ar    1  LIG1        0.0038
     30 C          -9.7512    5.4214   -0.9603 C.ar    1  LIG1        0.1534
     31 O          -8.9836    4.4823   -0.3616 O.2     1  LIG1       -0.4504
     32 N          -5.4539    7.2881   -1.7206 N.1     1  LIG1       -0.1907
     33 C          -6.4279    6.7503   -1.4341 C.1     1  LIG1        0.1030
     34 H          -9.2766    7.3099   -1.9678 H       1  LIG1        0.0669
     35 C         -11.1743    5.1335   -0.9792 C.ar    1  LIG1        0.0868
     36 C         -12.2534    5.8973   -1.3683 C.ar    1  LIG1       -0.0042
     37 C         -13.3974    5.0758   -1.1546 C.ar    1  LIG1        0.0807
     38 C         -12.9792    3.8521   -0.6486 C.ar    1  LIG1        0.0683
     39 N         -11.6297    3.9129   -0.5561 N.ar    1  LIG1       -0.3504
     40 H         -11.0365    3.1934   -0.1635 H       1  LIG1        0.1660
     41 C         -12.2398    7.3023   -1.9106 C.3     1  LIG1       -0.0364
     42 H         -13.2605    7.6766   -1.9784 H       1  LIG1        0.0279
     43 H         -11.7941    7.3272   -2.9070 H       1  LIG1        0.0279
     44 H         -11.6685    7.9585   -1.2515 H       1  LIG1        0.0279
     45 N         -15.8110    5.7738   -1.7480 N.1     1  LIG1       -0.1908
     46 C         -14.7465    5.4449   -1.4691 C.1     1  LIG1        0.1016
     47 C         -14.9068    2.6989    0.4451 C.ar    1  LIG1        0.1266
     48 C         -15.6226    1.5419    0.7369 C.ar    1  LIG1       -0.0104
     49 C         -13.7241    2.6277   -0.3052 C.ar    1  LIG1        0.0410
     50 C         -15.1444    0.2998    0.3199 C.ar    1  LIG1        0.0031
     51 H         -16.5464    1.6116    1.2986 H       1  LIG1        0.0661
     52 C         -13.2567    1.3768   -0.7111 C.ar    1  LIG1       -0.0485
     53 C         -13.9470    0.2147   -0.3958 C.ar    1  LIG1       -0.0517
     54 H         -12.3471    1.3208   -1.2964 H       1  LIG1        0.0625
     55 O         -15.3025    3.9186    0.8673 O.3     1  LIG1       -0.5061
     56 H         -16.1732    3.8868    1.2784 H       1  LIG1        0.2922
     57 H         -13.5469   -0.7479   -0.6867 H       1  LIG1        0.0624
     58 C         -15.9097   -0.9218    0.6294 C.ar    1  LIG1        0.0658
     59 C         -16.7390   -1.2396    1.6913 C.ar    1  LIG1        0.0929
     60 C         -17.2054   -2.5754    1.5027 C.ar    1  LIG1        0.0680
     61 C         -16.6456   -3.0290    0.3144 C.ar    1  LIG1        0.0690
     62 N         -15.8759   -2.0134   -0.1727 N.ar    1  LIG1       -0.3520
     63 H         -15.3800   -2.0949   -1.0516 H       1  LIG1        0.1660
     64 N         -17.3274    0.3082    3.6706 N.1     1  LIG1       -0.1908
     65 C         -17.0595   -0.3913    2.7996 C.1     1  LIG1        0.1025
     66 C         -18.0624   -3.2638    2.4185 C.1     1  LIG1       -0.0662
     67 C         -18.7795   -3.8016    3.2202 C.1     1  LIG1       -0.1138
     68 H         -19.4056   -4.2662    3.9466 H       1  LIG1        0.1232
     69 C         -16.0018   -4.6719   -1.5023 C.ar    1  LIG1        0.2246
     70 C         -16.7991   -4.3077   -0.3967 C.ar    1  LIG1        0.0628
     71 C         -17.7789   -5.2217   -0.0269 C.ar    1  LIG1       -0.0246
     72 C         -17.9259   -6.4415   -0.6898 C.ar    1  LIG1        0.0532
     73 C         -17.0365   -6.7156   -1.7353 C.ar    1  LIG1        0.1115
     74 N         -16.1229   -5.8148   -2.1278 N.ar    1  LIG1       -0.2090
     75 H         -18.4456   -4.9787    0.7905 H       1  LIG1        0.0645
     76 O         -15.0598   -3.7944   -1.9437 O.3     1  LIG1       -0.4792
     77 C         -14.2423   -4.2185   -3.0336 C.3     1  LIG1        0.0804
     78 H         -13.5337   -3.4105   -3.1933 H       1  LIG1        0.0660
     79 H         -13.7284   -5.1428   -2.7744 H       1  LIG1        0.0660
     80 H         -14.8546   -4.3745   -3.9213 H       1  LIG1        0.0660
     81 N         -18.9095   -7.3623   -0.3197 N.pl3   1  LIG1       -0.3563
     82 H         -19.6220   -6.9722    0.2829 H       1  LIG1        0.1424
     83 H         -19.3153   -7.8471   -1.1133 H       1  LIG1        0.1424
     84 C         -17.0597   -7.9696   -2.4986 C.ar    1  LIG1        0.0669
     85 C         -17.5809   -9.2328   -2.2631 C.ar    1  LIG1       -0.0349
     86 C         -17.2313  -10.0425   -3.3759 C.ar    1  LIG1       -0.0438
     87 C         -16.5136   -9.2521   -4.2459 C.ar    1  LIG1        0.0022
     88 N         -16.4178   -8.0114   -3.7024 N.ar    1  LIG1       -0.3594
     89 H         -15.9229   -7.2129   -4.0701 H       1  LIG1        0.1654
     90 H         -16.0701   -9.4806   -5.1993 H       1  LIG1        0.0807
     91 H         -18.0906   -9.5487   -1.3691 H       1  LIG1        0.0639
     92 H         -17.4732  -11.0817   -3.5186 H       1  LIG1        0.0633
@<TRIPOS>BOND
     1    90    87    1
     2    87    88   ar
     3    87    86   ar
     4    89    88    1
     5    80    77    1
     6    88    84   ar
     7    92    86    1
     8    86    85   ar
     9    78    77    1
    10    77    79    1
    11    77    76    1
    12    43    41    1
    13    84    85   ar
    14    84    73    1
    15    85    91    1
    16    74    73   ar
    17    74    69   ar
    18    42    41    1
    19    34    29    1
    20    76    69    1
    21    41    36    1
    22    41    44    1
    23    45    46    3
    24    73    72   ar
    25    32    33    3
    26    69    70   ar
    27    46    37    1
    28    33    28    1
    29    29    28   ar
    30    29    30   ar
    31    36    37   ar
    32    36    35   ar
    33    54    52    1
    34    37    38   ar
    35    83    81    1
    36    28    27   ar
    37    63    62    1
    38    35    30    1
    39    35    39   ar
    40    30    31   ar
    41    52    53   ar
    42    52    49   ar
    43    72    81    1
    44    72    71   ar
    45    57    53    1
    46    38    39   ar
    47    38    49    1
    48    39    40    1
    49    27    31   ar
    50    27    19    1
    51    70    71   ar
    52    70    61    1
    53    53    50   ar
    54    81    82    1
    55    49    47   ar
    56    62    61   ar
    57    62    58   ar
    58    71    75    1
    59    20    19   ar
    60    20    15   ar
    61    19    18   ar
    62    61    60   ar
    63    50    58    1
    64    50    48   ar
    65    26    24    1
    66    22    15    1
    67    22    23    1
    68    47    48   ar
    69    47    55    1
    70    15    16   ar
    71    58    59   ar
    72    48    51    1
    73    55    56    1
    74    18    24    1
    75    18    17   ar
    76    14    13    1
    77    24    25    1
    78    16    17   ar
    79    16     5    1
    80    13    12    3
    81    17    21    1
    82    60    59   ar
    83    60    66    1
    84    12     4    1
    85    59    65    1
    86     5     6   ar
    87     5     4   ar
    88     6     1   ar
    89     4     3   ar
    90    66    67    3
    91     1     9    1
    92     1     2   ar
    93     3     7    1
    94     3     2   ar
    95     9    10    3
    96    65    64    3
    97     2     8    1
    98    10    11    1
    99    67    68    1
