@<TRIPOS>MOLECULE
mol_data/opt/m06hf/geoms/mol2/6ee6ee.out
 28 29 0 0 0
SMALL
GASTEIGER

@<TRIPOS>ATOM
      1 C          -4.4889   -1.9961   -0.6775 C.ar    1  LIG1        0.1139
      2 C          -3.1761   -2.1182   -0.2111 C.ar    1  LIG1       -0.0266
      3 C          -2.5830   -1.0114    0.3706 C.ar    1  LIG1       -0.0416
      4 C          -3.3106    0.1770    0.4716 C.ar    1  LIG1        0.0508
      5 C          -4.6240    0.1957   -0.0313 C.ar    1  LIG1        0.0904
      6 N          -5.1895   -0.8665   -0.5917 N.ar    1  LIG1       -0.2371
      7 H          -1.5727   -1.0510    0.7543 H       1  LIG1        0.0631
      8 H          -2.6550   -3.0590   -0.3106 H       1  LIG1        0.0646
      9 C          -5.1394   -3.1376   -1.2900 C.1     1  LIG1       -0.0498
     10 C          -5.6519   -4.1015   -1.7890 C.1     1  LIG1       -0.1124
     11 H          -6.1185   -4.9498   -2.2343 H       1  LIG1        0.1232
     12 C          -2.7228    1.3359    1.0956 C.1     1  LIG1       -0.0675
     13 C          -2.2115    2.2895    1.6181 C.1     1  LIG1       -0.1138
     14 H          -1.7699    3.1407    2.0835 H       1  LIG1        0.1232
     15 C          -6.7066    1.4371    0.6711 C.ar    1  LIG1        0.1224
     16 C          -5.4555    1.4348    0.0343 C.ar    1  LIG1        0.0366
     17 C          -5.0136    2.6180   -0.5452 C.ar    1  LIG1       -0.0330
     18 C          -5.8266    3.7478   -0.4870 C.ar    1  LIG1        0.0435
     19 C          -7.0614    3.6379    0.1643 C.ar    1  LIG1        0.0444
     20 N          -7.4867    2.5192    0.7297 N.ar    1  LIG1       -0.2448
     21 H          -4.0520    2.6631   -1.0396 H       1  LIG1        0.0638
     22 H          -7.7159    4.4982    0.2244 H       1  LIG1        0.0842
     23 C          -7.1982    0.2476    1.3357 C.1     1  LIG1       -0.0491
     24 C          -7.5965   -0.7339    1.9006 C.1     1  LIG1       -0.1124
     25 H          -7.9538   -1.6091    2.3929 H       1  LIG1        0.1232
     26 C          -5.4216    4.9985   -1.0766 C.1     1  LIG1       -0.0681
     27 C          -5.0892    6.0435   -1.5671 C.1     1  LIG1       -0.1139
     28 H          -4.7963    6.9706   -2.0027 H       1  LIG1        0.1232
@<TRIPOS>BOND
     1    11    10    1
     2    28    27    1
     3    10     9    3
     4    27    26    3
     5     9     1    1
     6    26    18    1
     7    21    17    1
     8     1     6   ar
     9     1     2   ar
    10     6     5   ar
    11    17    18   ar
    12    17    16   ar
    13    18    19   ar
    14     8     2    1
    15     2     3   ar
    16     5    16    1
    17     5     4   ar
    18    16    15   ar
    19    19    22    1
    20    19    20   ar
    21     3     4   ar
    22     3     7    1
    23     4    12    1
    24    15    20   ar
    25    15    23    1
    26    12    13    3
    27    23    24    3
    28    13    14    1
    29    24    25    1
