@<TRIPOS>MOLECULE
mol_data/opt/m06hf/geoms/mol2/6ee6ee6ee6ee.out
 54 57 0 0 0
SMALL
GASTEIGER

@<TRIPOS>ATOM
      1 C          -3.6606   -1.5519   -1.6676 C.ar    1  LIG1        0.1139
      2 C          -2.9723   -2.1874   -0.6285 C.ar    1  LIG1       -0.0266
      3 C          -3.0882   -1.6658    0.6481 C.ar    1  LIG1       -0.0416
      4 C          -3.8815   -0.5339    0.8530 C.ar    1  LIG1        0.0508
      5 C          -4.5290    0.0305   -0.2607 C.ar    1  LIG1        0.0904
      6 N          -4.4158   -0.4701   -1.4846 N.ar    1  LIG1       -0.2371
      7 H          -2.5832   -2.1198    1.4899 H       1  LIG1        0.0631
      8 H          -2.3727   -3.0613   -0.8372 H       1  LIG1        0.0646
      9 C          -3.5596   -2.0735   -3.0160 C.1     1  LIG1       -0.0498
     10 C          -3.4549   -2.5290   -4.1214 C.1     1  LIG1       -0.1124
     11 H          -3.3695   -2.9234   -5.1076 H       1  LIG1        0.1232
     12 C          -4.0355    0.0165    2.1759 C.1     1  LIG1       -0.0675
     13 C          -4.1497    0.4600    3.2865 C.1     1  LIG1       -0.1138
     14 H          -4.2621    0.8598    4.2678 H       1  LIG1        0.1232
     15 C          -6.7259    1.2474   -0.5283 C.ar    1  LIG1        0.1231
     16 C          -5.3820    1.2487   -0.1215 C.ar    1  LIG1        0.0366
     17 C          -4.8634    2.4252    0.3998 C.ar    1  LIG1       -0.0324
     18 C          -5.6736    3.5570    0.4886 C.ar    1  LIG1        0.0514
     19 C          -7.0025    3.4528    0.0411 C.ar    1  LIG1        0.0904
     20 N          -7.5032    2.3258   -0.4471 N.ar    1  LIG1       -0.2364
     21 H          -3.8363    2.4725    0.7378 H       1  LIG1        0.0638
     22 C          -7.3461    0.0402   -1.0333 C.1     1  LIG1       -0.0491
     23 C          -7.8684   -0.9634   -1.4334 C.1     1  LIG1       -0.1124
     24 H          -8.3359   -1.8497   -1.7956 H       1  LIG1        0.1232
     25 C          -5.1504    4.7822    1.0387 C.1     1  LIG1       -0.0675
     26 C          -4.6964    5.7954    1.4990 C.1     1  LIG1       -0.1138
     27 H          -4.3036    6.6985    1.9076 H       1  LIG1        0.1232
     28 C          -9.1635    4.5495    0.7532 C.ar    1  LIG1        0.1231
     29 C          -7.9287    4.6230    0.0882 C.ar    1  LIG1        0.0366
     30 C          -7.6012    5.8157   -0.5402 C.ar    1  LIG1       -0.0324
     31 C          -8.4983    6.8832   -0.5061 C.ar    1  LIG1        0.0514
     32 C          -9.7145    6.7011    0.1743 C.ar    1  LIG1        0.0904
     33 N         -10.0239    5.5656    0.7854 N.ar    1  LIG1       -0.2364
     34 H          -6.6560    5.9250   -1.0556 H       1  LIG1        0.0638
     35 C          -9.5517    3.3537    1.4721 C.1     1  LIG1       -0.0491
     36 C          -9.8726    2.3700    2.0796 C.1     1  LIG1       -0.1124
     37 H         -10.1667    1.4929    2.6078 H       1  LIG1        0.1232
     38 C          -8.1628    8.1322   -1.1423 C.1     1  LIG1       -0.0675
     39 C          -7.8646    9.1641   -1.6803 C.1     1  LIG1       -0.1138
     40 H          -7.6062   10.0832   -2.1536 H       1  LIG1        0.1232
     41 C         -11.2332    8.2546    1.4618 C.ar    1  LIG1        0.1224
     42 C         -10.7389    7.7863    0.2340 C.ar    1  LIG1        0.0366
     43 C         -11.2450    8.3470   -0.9322 C.ar    1  LIG1       -0.0330
     44 C         -12.2275    9.3312   -0.8418 C.ar    1  LIG1        0.0435
     45 C         -12.6592    9.7163    0.4330 C.ar    1  LIG1        0.0444
     46 N         -12.1730    9.1993    1.5504 N.ar    1  LIG1       -0.2448
     47 H         -10.8886    8.0209   -1.9004 H       1  LIG1        0.0638
     48 H         -13.4253   10.4745    0.5360 H       1  LIG1        0.0842
     49 C         -10.7088    7.7470    2.7131 C.1     1  LIG1       -0.0491
     50 C         -10.2612    7.3419    3.7502 C.1     1  LIG1       -0.1124
     51 H          -9.8717    6.9741    4.6709 H       1  LIG1        0.1232
     52 C         -12.7931    9.9374   -2.0203 C.1     1  LIG1       -0.0681
     53 C         -13.2621   10.4423   -3.0044 C.1     1  LIG1       -0.1139
     54 H         -13.6777   10.8866   -3.8791 H       1  LIG1        0.1232
@<TRIPOS>BOND
     1    11    10    1
     2    10     9    3
     3    54    53    1
     4     9     1    1
     5    53    52    3
     6    40    39    1
     7    52    44    1
     8    47    43    1
     9    24    23    1
    10    39    38    3
    11     1     6   ar
    12     1     2   ar
    13     6     5   ar
    14    23    22    3
    15    38    31    1
    16    34    30    1
    17    22    15    1
    18    43    44   ar
    19    43    42   ar
    20    44    45   ar
    21     8     2    1
    22     2     3   ar
    23    30    31   ar
    24    30    29   ar
    25    15    20   ar
    26    15    16   ar
    27    31    32   ar
    28    20    19   ar
    29     5    16    1
    30     5     4   ar
    31    16    17   ar
    32    19    29    1
    33    19    18   ar
    34    29    28   ar
    35    32    42    1
    36    32    33   ar
    37    42    41   ar
    38    17    18   ar
    39    17    21    1
    40    45    48    1
    41    45    46   ar
    42    18    25    1
    43     3     4   ar
    44     3     7    1
    45    28    33   ar
    46    28    35    1
    47     4    12    1
    48    25    26    3
    49    41    46   ar
    50    41    49    1
    51    35    36    3
    52    26    27    1
    53    36    37    1
    54    12    13    3
    55    49    50    3
    56    13    14    1
    57    50    51    1
