@<TRIPOS>MOLECULE
mol_data/opt/m06hf/geoms/mol2/6ee6ee6ee.out
 41 43 0 0 0
SMALL
GASTEIGER

@<TRIPOS>ATOM
      1 C          -4.1874   -1.8435   -1.2756 C.ar    1  LIG1        0.1139
      2 C          -3.1204   -2.1845   -0.4374 C.ar    1  LIG1       -0.0266
      3 C          -2.8017   -1.3242    0.5987 C.ar    1  LIG1       -0.0416
      4 C          -3.5496   -0.1560    0.7694 C.ar    1  LIG1        0.0508
      5 C          -4.5984    0.0965   -0.1326 C.ar    1  LIG1        0.0904
      6 N          -4.9024   -0.7298   -1.1260 N.ar    1  LIG1       -0.2371
      7 H          -1.9913   -1.5403    1.2811 H       1  LIG1        0.0631
      8 H          -2.5726   -3.0994   -0.6101 H       1  LIG1        0.0646
      9 C          -4.5481   -2.7236   -2.3692 C.1     1  LIG1       -0.0498
     10 C          -4.8219   -3.4715   -3.2672 C.1     1  LIG1       -0.1124
     11 H          -5.0768   -4.1250   -4.0693 H       1  LIG1        0.1232
     12 C          -3.2522    0.7439    1.8551 C.1     1  LIG1       -0.0675
     13 C          -2.9890    1.4792    2.7680 C.1     1  LIG1       -0.1138
     14 H          -2.7660    2.1352    3.5777 H       1  LIG1        0.1232
     15 C          -6.8251    1.2698    0.0837 C.ar    1  LIG1        0.1231
     16 C          -5.4268    1.3344   -0.0271 C.ar    1  LIG1        0.0366
     17 C          -4.8366    2.5895   -0.0564 C.ar    1  LIG1       -0.0324
     18 C          -5.6364    3.7303    0.0059 C.ar    1  LIG1        0.0514
     19 C          -7.0276    3.5556    0.0984 C.ar    1  LIG1        0.0904
     20 N          -7.5930    2.3565    0.1398 N.ar    1  LIG1       -0.2364
     21 H          -3.7612    2.6905   -0.1256 H       1  LIG1        0.0638
     22 C          -7.5034   -0.0064    0.1759 C.1     1  LIG1       -0.0491
     23 C          -8.0673   -1.0615    0.2704 C.1     1  LIG1       -0.1124
     24 H          -8.5729   -1.9964    0.3444 H       1  LIG1        0.1232
     25 C          -5.0341    5.0395   -0.0091 C.1     1  LIG1       -0.0675
     26 C          -4.5127    6.1217   -0.0217 C.1     1  LIG1       -0.1138
     27 H          -4.0586    7.0856   -0.0291 H       1  LIG1        0.1232
     28 C          -8.8589    4.8903    1.2063 C.ar    1  LIG1        0.1224
     29 C          -7.9526    4.7266    0.1480 C.ar    1  LIG1        0.0366
     30 C          -7.9504    5.6763   -0.8662 C.ar    1  LIG1       -0.0330
     31 C          -8.8523    6.7365   -0.8048 C.ar    1  LIG1        0.0435
     32 C          -9.7233    6.7982    0.2899 C.ar    1  LIG1        0.0444
     33 N          -9.7232    5.9068    1.2682 N.ar    1  LIG1       -0.2448
     34 H          -7.2640    5.5919   -1.6986 H       1  LIG1        0.0638
     35 H         -10.4396    7.6068    0.3634 H       1  LIG1        0.0842
     36 C          -8.8718    3.9627    2.3189 C.1     1  LIG1       -0.0491
     37 C          -8.8732    3.2054    3.2501 C.1     1  LIG1       -0.1124
     38 H          -8.8852    2.5290    4.0731 H       1  LIG1        0.1232
     39 C          -8.9014    7.7445   -1.8332 C.1     1  LIG1       -0.0681
     40 C          -8.9451    8.5880   -2.6874 C.1     1  LIG1       -0.1139
     41 H          -8.9863    9.3338   -3.4472 H       1  LIG1        0.1232
@<TRIPOS>BOND
     1    11    10    1
     2    41    40    1
     3    10     9    3
     4    40    39    3
     5     9     1    1
     6    39    31    1
     7    34    30    1
     8     1     6   ar
     9     1     2   ar
    10     6     5   ar
    11    30    31   ar
    12    30    29   ar
    13    31    32   ar
    14     8     2    1
    15     2     3   ar
    16     5    16    1
    17     5     4   ar
    18    21    17    1
    19    17    16   ar
    20    17    18   ar
    21    27    26    1
    22    16    15   ar
    23    26    25    3
    24    25    18    1
    25    18    19   ar
    26    15    20   ar
    27    15    22    1
    28    19    20   ar
    29    19    29    1
    30    29    28   ar
    31    22    23    3
    32    23    24    1
    33    32    35    1
    34    32    33   ar
    35     3     4   ar
    36     3     7    1
    37     4    12    1
    38    28    33   ar
    39    28    36    1
    40    12    13    3
    41    36    37    3
    42    13    14    1
    43    37    38    1
