@<TRIPOS>MOLECULE
mol_data/opt/m06hf/geoms/mol2/6ef13al4fi-6fe-.out
 52 55 0 0 0
SMALL
GASTEIGER

@<TRIPOS>ATOM
      1 C          -4.5229   -1.9949    1.1203 C.ar    1  LIG1        0.1141
      2 C          -3.1468   -2.0055    1.3662 C.ar    1  LIG1       -0.0243
      3 C          -2.4311   -0.8297    1.1940 C.ar    1  LIG1       -0.0154
      4 C          -3.1032    0.3042    0.7577 C.ar    1  LIG1        0.1442
      5 C          -4.4760    0.2055    0.4758 C.ar    1  LIG1        0.1298
      6 N          -5.1651   -0.9126    0.6834 N.ar    1  LIG1       -0.2333
      7 H          -1.3724   -0.7628    1.4043 H       1  LIG1        0.0655
      8 H          -2.6701   -2.9143    1.7033 H       1  LIG1        0.0646
      9 C          -5.3039   -3.1978    1.3326 C.1     1  LIG1       -0.0498
     10 C          -5.9231   -4.2094    1.5192 C.1     1  LIG1       -0.1124
     11 H          -6.4811   -5.1031    1.6785 H       1  LIG1        0.1232
     12 O          -2.4298    1.4716    0.6292 O.3     1  LIG1       -0.5046
     13 H          -3.0592    2.2067    0.6638 H       1  LIG1        0.2922
     14 C          -5.2367    1.3666   -0.0142 C.ar    1  LIG1        0.0726
     15 C          -4.8672    2.5135   -0.7118 C.ar    1  LIG1        0.0077
     16 C          -6.0596    3.2590   -0.9108 C.ar    1  LIG1        0.1460
     17 C          -7.1058    2.5581   -0.3360 C.ar    1  LIG1        0.0927
     18 N          -6.5720    1.4130    0.1875 N.ar    1  LIG1       -0.3498
     19 H          -7.0731    0.6884    0.6836 H       1  LIG1        0.1661
     20 H          -3.8911    2.7235   -1.1184 H       1  LIG1        0.0676
     21 O          -6.2295    4.4233   -1.5796 O.3     1  LIG1       -0.4930
     22 C          -5.0519    4.9985   -2.1078 C.3     1  LIG1        0.0789
     23 H          -5.3537    5.9268   -2.5857 H       1  LIG1        0.0660
     24 H          -4.3356    5.2093   -1.3086 H       1  LIG1        0.0660
     25 H          -4.5959    4.3345   -2.8479 H       1  LIG1        0.0660
     26 C          -9.0310    4.0898    0.0992 C.ar    1  LIG1        0.1266
     27 C         -10.4016    4.3314    0.1031 C.ar    1  LIG1       -0.0114
     28 C          -8.5504    2.8355   -0.3004 C.ar    1  LIG1        0.0436
     29 C         -11.3050    3.3296   -0.2554 C.ar    1  LIG1       -0.0064
     30 H         -10.7807    5.3050    0.3949 H       1  LIG1        0.0660
     31 C          -9.4692    1.8452   -0.6495 C.ar    1  LIG1       -0.0455
     32 C         -10.8477    2.0559   -0.6281 C.ar    1  LIG1       -0.0417
     33 H          -9.0872    0.8812   -0.9671 H       1  LIG1        0.0628
     34 O          -8.1295    5.0219    0.4890 O.3     1  LIG1       -0.5061
     35 H          -8.5590    5.8713    0.6331 H       1  LIG1        0.2922
     36 C         -11.8153    0.9379   -0.9810 C.3     1  LIG1       -0.0391
     37 H         -11.2674    0.0087   -1.1310 H       1  LIG1        0.0278
     38 H         -12.3679    1.1687   -1.8939 H       1  LIG1        0.0278
     39 H         -12.5365    0.7968   -0.1747 H       1  LIG1        0.0278
     40 C         -13.4867    3.7077   -1.4545 C.ar    1  LIG1        0.2203
     41 C         -12.7679    3.6362   -0.2419 C.ar    1  LIG1        0.0450
     42 C         -13.4678    3.8762    0.9276 C.ar    1  LIG1       -0.0321
     43 C         -14.8385    4.1553    0.8688 C.ar    1  LIG1        0.0436
     44 C         -15.4401    4.1790   -0.3899 C.ar    1  LIG1        0.0468
     45 N         -14.7792    3.9647   -1.5227 N.ar    1  LIG1       -0.2197
     46 H         -12.9593    3.8360    1.8824 H       1  LIG1        0.0638
     47 H         -16.5001    4.3823   -0.4768 H       1  LIG1        0.0843
     48 O         -12.8702    3.5093   -2.6331 O.3     1  LIG1       -0.4920
     49 H         -11.9163    3.4253   -2.4940 H       1  LIG1        0.2937
     50 C         -15.6098    4.4039    2.0599 C.1     1  LIG1       -0.0681
     51 C         -16.2532    4.6102    3.0534 C.1     1  LIG1       -0.1139
     52 H         -16.8240    4.7919    3.9342 H       1  LIG1        0.1232
@<TRIPOS>BOND
     1    25    22    1
     2    48    49    1
     3    48    40    1
     4    23    22    1
     5    22    21    1
     6    22    24    1
     7    38    36    1
     8    21    16    1
     9    45    40   ar
    10    45    44   ar
    11    40    41   ar
    12    37    36    1
    13    20    15    1
    14    36    32    1
    15    36    39    1
    16    33    31    1
    17    16    15   ar
    18    16    17   ar
    19    15    14   ar
    20    31    32   ar
    21    31    28   ar
    22    32    29   ar
    23    47    44    1
    24    44    43   ar
    25    17    28    1
    26    17    18   ar
    27    28    26   ar
    28    29    41    1
    29    29    27   ar
    30    41    42   ar
    31    14    18   ar
    32    14     5    1
    33    26    27   ar
    34    26    34    1
    35    27    30    1
    36    18    19    1
    37     5     6   ar
    38     5     4   ar
    39    34    35    1
    40    12    13    1
    41    12     4    1
    42     6     1   ar
    43     4     3   ar
    44    43    42   ar
    45    43    50    1
    46    42    46    1
    47     1     9    1
    48     1     2   ar
    49     3     2   ar
    50     3     7    1
    51     9    10    3
    52     2     8    1
    53    10    11    1
    54    50    51    3
    55    51    52    1
