@<TRIPOS>MOLECULE
mol_data/opt/m06hf/geoms/mol2/6ef6eh-4fd13id-.out
 51 54 0 0 0
SMALL
GASTEIGER

@<TRIPOS>ATOM
      1 C          -4.0623   -1.9513    1.0661 C.ar    1  LIG1        0.1141
      2 C          -3.3120   -2.4424   -0.0095 C.ar    1  LIG1       -0.0243
      3 C          -3.2559   -1.7032   -1.1779 C.ar    1  LIG1       -0.0154
      4 C          -3.9474   -0.4962   -1.2342 C.ar    1  LIG1        0.1429
      5 C          -4.6645   -0.0815   -0.1033 C.ar    1  LIG1        0.1163
      6 N          -4.7216   -0.7968    1.0125 N.ar    1  LIG1       -0.2347
      7 H          -2.7035   -2.0328   -2.0472 H       1  LIG1        0.0655
      8 H          -2.7966   -3.3874    0.0870 H       1  LIG1        0.0646
      9 C          -4.1360   -2.7120    2.2982 C.1     1  LIG1       -0.0498
     10 C          -4.1771   -3.3650    3.3047 C.1     1  LIG1       -0.1124
     11 H          -4.2236   -3.9339    4.2041 H       1  LIG1        0.1232
     12 O          -3.9005    0.2270   -2.3764 O.3     1  LIG1       -0.5046
     13 H          -4.5251    0.9631   -2.3323 H       1  LIG1        0.2922
     14 C          -6.8032    1.2682   -0.0169 C.ar    1  LIG1        0.1232
     15 C          -5.4055    1.2167   -0.1394 C.ar    1  LIG1        0.0396
     16 C          -4.7229    2.4118   -0.3137 C.ar    1  LIG1       -0.0270
     17 C          -5.4072    3.6348   -0.3413 C.ar    1  LIG1        0.0517
     18 C          -6.8096    3.5735   -0.1809 C.ar    1  LIG1        0.0965
     19 N          -7.4595    2.4232   -0.0414 N.ar    1  LIG1       -0.2358
     20 H          -3.6422    2.4001   -0.4122 H       1  LIG1        0.0644
     21 C          -7.5843    0.0566    0.1074 C.1     1  LIG1       -0.0491
     22 C          -8.2203   -0.9577    0.1957 C.1     1  LIG1       -0.1124
     23 H          -8.7853   -1.8568    0.2856 H       1  LIG1        0.1232
     24 N          -4.7373    4.8129   -0.6002 N.pl3   1  LIG1       -0.3563
     25 H          -3.7302    4.7393   -0.5784 H       1  LIG1        0.1424
     26 H          -5.0851    5.6249   -0.1070 H       1  LIG1        0.1424
     27 C          -7.5298    5.9537    0.4532 C.ar    1  LIG1        0.1268
     28 C          -8.4331    7.0101    0.3496 C.ar    1  LIG1       -0.0092
     29 C          -7.7072    4.7688   -0.2669 C.ar    1  LIG1        0.0448
     30 C          -9.5723    6.9094   -0.4438 C.ar    1  LIG1        0.0194
     31 H          -8.2346    7.9350    0.8777 H       1  LIG1        0.0661
     32 C          -8.8459    4.6676   -1.0614 C.ar    1  LIG1       -0.0310
     33 C          -9.7618    5.7110   -1.1567 C.ar    1  LIG1        0.0617
     34 H          -9.0240    3.7435   -1.5953 H       1  LIG1        0.0638
     35 O          -6.4324    6.0558    1.2543 O.3     1  LIG1       -0.5061
     36 H          -6.4975    6.8186    1.8398 H       1  LIG1        0.2922
     37 N         -11.8077    5.4235   -2.7275 N.1     1  LIG1       -0.1908
     38 C         -10.9133    5.5353   -2.0157 C.1     1  LIG1        0.0998
     39 C         -10.5177    8.0396   -0.4898 C.ar    1  LIG1        0.0520
     40 C         -10.8789    8.9174    0.5140 C.ar    1  LIG1       -0.0078
     41 C         -11.8119    9.8208   -0.0759 C.ar    1  LIG1        0.0725
     42 C         -11.9878    9.4628   -1.3967 C.ar    1  LIG1        0.0199
     43 N         -11.2042    8.3921   -1.6296 N.ar    1  LIG1       -0.3592
     44 H         -11.1689    7.8872   -2.5039 H       1  LIG1        0.1654
     45 H         -12.6149    9.8949   -2.1570 H       1  LIG1        0.0820
     46 C         -10.4623    8.9351    1.9639 C.3     1  LIG1       -0.0365
     47 H         -11.2889    9.3094    2.5678 H       1  LIG1        0.0279
     48 H          -9.6069    9.5962    2.1207 H       1  LIG1        0.0279
     49 H         -10.2080    7.9307    2.3024 H       1  LIG1        0.0279
     50 N         -12.9843   11.7611    1.1618 N.1     1  LIG1       -0.1908
     51 C         -12.4690   10.9025    0.5991 C.1     1  LIG1        0.1009
@<TRIPOS>BOND
     1    37    38    3
     2    44    43    1
     3    12    13    1
     4    12     4    1
     5    45    42    1
     6     7     3    1
     7    38    33    1
     8    43    42   ar
     9    43    39   ar
    10    34    32    1
    11    42    41   ar
    12     4     3   ar
    13     4     5   ar
    14     3     2   ar
    15    33    32   ar
    16    33    30   ar
    17    32    29   ar
    18    24    25    1
    19    24    17    1
    20    24    26    1
    21    39    30    1
    22    39    40   ar
    23    30    28   ar
    24    20    16    1
    25    17    16   ar
    26    17    18   ar
    27    16    15   ar
    28    29    18    1
    29    29    27   ar
    30    18    19   ar
    31    15     5    1
    32    15    14   ar
    33     5     6   ar
    34    41    40   ar
    35    41    51    1
    36    19    14   ar
    37    14    21    1
    38     2     8    1
    39     2     1   ar
    40    21    22    3
    41    22    23    1
    42    28    27   ar
    43    28    31    1
    44    27    35    1
    45    40    46    1
    46    51    50    3
    47     6     1   ar
    48     1     9    1
    49    35    36    1
    50    46    48    1
    51    46    49    1
    52    46    47    1
    53     9    10    3
    54    10    11    1
