@<TRIPOS>MOLECULE
mol_data/opt/m06hf/geoms/mol2/6ef6ef-4ef6ef.out
 51 54 0 0 0
SMALL
GASTEIGER

@<TRIPOS>ATOM
      1 C          -4.2969   -2.0631    0.6425 C.ar    1  LIG1        0.1141
      2 C          -3.1632   -2.3756   -0.1157 C.ar    1  LIG1       -0.0243
      3 C          -2.6447   -1.4003   -0.9454 C.ar    1  LIG1       -0.0154
      4 C          -3.2469   -0.1421   -0.9979 C.ar    1  LIG1        0.1429
      5 C          -4.3733    0.0860   -0.1864 C.ar    1  LIG1        0.1164
      6 N          -4.8767   -0.8694    0.5954 N.ar    1  LIG1       -0.2347
      7 H          -1.7820   -1.5755   -1.5737 H       1  LIG1        0.0655
      8 H          -2.7244   -3.3605   -0.0481 H       1  LIG1        0.0646
      9 C          -4.8884   -3.0650    1.5084 C.1     1  LIG1       -0.0498
     10 C          -5.3569   -3.9156    2.2143 C.1     1  LIG1       -0.1124
     11 H          -5.7808   -4.6623    2.8449 H       1  LIG1        0.1232
     12 O          -2.7481    0.7417   -1.8898 O.3     1  LIG1       -0.5046
     13 H          -2.7452    1.6447   -1.5366 H       1  LIG1        0.2922
     14 C          -4.6699    2.6479   -0.1300 C.ar    1  LIG1        0.1233
     15 C          -5.1801    1.3471   -0.1991 C.ar    1  LIG1        0.0413
     16 C          -6.5679    1.2158   -0.2269 C.ar    1  LIG1       -0.0061
     17 C          -7.3710    2.3433   -0.2192 C.ar    1  LIG1        0.1435
     18 C          -6.7591    3.6124   -0.1750 C.ar    1  LIG1        0.1149
     19 N          -5.4442    3.7333   -0.1317 N.ar    1  LIG1       -0.2341
     20 H          -6.9980    0.2203   -0.2351 H       1  LIG1        0.0662
     21 C          -3.2449    2.8913   -0.0086 C.1     1  LIG1       -0.0491
     22 C          -2.0565    3.0641    0.0712 C.1     1  LIG1       -0.1124
     23 H          -1.0075    3.2315    0.1650 H       1  LIG1        0.1232
     24 O          -8.7237    2.2773   -0.2520 O.3     1  LIG1       -0.5046
     25 H          -9.0182    1.3636   -0.1664 H       1  LIG1        0.2922
     26 C          -7.2667    5.8878    0.7676 C.ar    1  LIG1        0.0348
     27 C          -8.0205    7.0655    0.7385 C.ar    1  LIG1       -0.0344
     28 C          -7.5647    4.8693   -0.1502 C.ar    1  LIG1        0.0228
     29 C          -9.0546    7.2464   -0.1703 C.ar    1  LIG1        0.0275
     30 H          -7.8063    7.8426    1.4609 H       1  LIG1        0.0637
     31 C          -8.5995    5.0457   -1.0650 C.ar    1  LIG1       -0.0091
     32 C          -9.3375    6.2241   -1.0845 C.ar    1  LIG1        0.1253
     33 H          -8.8237    4.2580   -1.7745 H       1  LIG1        0.0661
     34 C          -6.2462    5.7494    1.7799 C.1     1  LIG1       -0.0690
     35 C          -5.4295    5.6764    2.6583 C.1     1  LIG1       -0.1139
     36 H          -4.6980    5.6005    3.4291 H       1  LIG1        0.1232
     37 O         -10.3185    6.4510   -1.9907 O.3     1  LIG1       -0.5061
     38 H         -10.5852    5.6326   -2.4220 H       1  LIG1        0.2922
     39 C         -11.2291    8.5107    0.0855 C.ar    1  LIG1        0.1211
     40 C          -9.8479    8.5080   -0.1823 C.ar    1  LIG1        0.0229
     41 C          -9.2269    9.7233   -0.4355 C.ar    1  LIG1       -0.0082
     42 C          -9.9918   10.8851   -0.4278 C.ar    1  LIG1        0.1355
     43 C         -11.3575   10.7813   -0.1660 C.ar    1  LIG1        0.0704
     44 N         -11.9555    9.6258    0.0878 N.ar    1  LIG1       -0.2425
     45 H          -8.1682    9.7784   -0.6522 H       1  LIG1        0.0661
     46 H         -11.9849   11.6678   -0.1572 H       1  LIG1        0.0867
     47 C         -11.9172    7.2770    0.4105 C.1     1  LIG1       -0.0492
     48 C         -12.4719    6.2521    0.6999 C.1     1  LIG1       -0.1124
     49 H         -12.9702    5.3492    0.9659 H       1  LIG1        0.1232
     50 O          -9.3773   12.0670   -0.6798 O.3     1  LIG1       -0.5052
     51 H         -10.0089   12.7945   -0.6565 H       1  LIG1        0.2922
@<TRIPOS>BOND
     1    38    37    1
     2    37    32    1
     3    12    13    1
     4    12     4    1
     5    33    31    1
     6     7     3    1
     7    32    31   ar
     8    32    29   ar
     9    31    28   ar
    10     4     3   ar
    11     4     5   ar
    12     3     2   ar
    13    50    51    1
    14    50    42    1
    15    45    41    1
    16    41    42   ar
    17    41    40   ar
    18    42    43   ar
    19    24    17    1
    20    24    25    1
    21    20    16    1
    22    16    17   ar
    23    16    15   ar
    24    17    18   ar
    25    15     5    1
    26    15    14   ar
    27     5     6   ar
    28    40    29    1
    29    40    39   ar
    30    18    28    1
    31    18    19   ar
    32    29    27   ar
    33    43    46    1
    34    43    44   ar
    35    28    26   ar
    36    19    14   ar
    37    14    21    1
    38     2     8    1
    39     2     1   ar
    40    21    22    3
    41    22    23    1
    42    39    44   ar
    43    39    47    1
    44    47    48    3
    45     6     1   ar
    46     1     9    1
    47    48    49    1
    48    27    26   ar
    49    27    30    1
    50    26    34    1
    51     9    10    3
    52    34    35    3
    53    10    11    1
    54    35    36    1
