@<TRIPOS>MOLECULE
mol_data/opt/m06hf/geoms/mol2/6ef6ef-.out
 26 27 0 0 0
SMALL
GASTEIGER

@<TRIPOS>ATOM
      1 C          -4.5159   -2.0161    0.2984 C.ar    1  LIG1        0.1141
      2 C          -3.2296   -2.1630   -0.2323 C.ar    1  LIG1       -0.0243
      3 C          -2.5976   -1.0397   -0.7306 C.ar    1  LIG1       -0.0154
      4 C          -3.2426    0.1964   -0.6824 C.ar    1  LIG1        0.1429
      5 C          -4.5294    0.2497   -0.1169 C.ar    1  LIG1        0.1164
      6 N          -5.1379   -0.8433    0.3430 N.ar    1  LIG1       -0.2347
      7 H          -1.6107   -1.0799   -1.1712 H       1  LIG1        0.0655
      8 H          -2.7614   -3.1369   -0.2516 H       1  LIG1        0.0646
      9 C          -5.2237   -3.1727    0.8126 C.1     1  LIG1       -0.0498
     10 C          -5.7836   -4.1489    1.2310 C.1     1  LIG1       -0.1124
     11 H          -6.2887   -5.0078    1.6082 H       1  LIG1        0.1232
     12 O          -2.6133    1.2449   -1.2591 O.3     1  LIG1       -0.5046
     13 H          -2.7215    2.0539   -0.7361 H       1  LIG1        0.2922
     14 C          -4.9571    2.7413    0.3615 C.ar    1  LIG1        0.1226
     15 C          -5.3777    1.4831   -0.0811 C.ar    1  LIG1        0.0412
     16 C          -6.7121    1.3497   -0.4727 C.ar    1  LIG1       -0.0067
     17 C          -7.5395    2.4579   -0.4423 C.ar    1  LIG1        0.1356
     18 C          -7.0076    3.6836   -0.0134 C.ar    1  LIG1        0.0704
     19 N          -5.7581    3.8139    0.3835 N.ar    1  LIG1       -0.2424
     20 H          -7.0727    0.3744   -0.7791 H       1  LIG1        0.0662
     21 H          -7.6452    4.5585    0.0079 H       1  LIG1        0.0867
     22 C          -3.6135    2.9463    0.8674 C.1     1  LIG1       -0.0491
     23 C          -2.4869    3.0963    1.2623 C.1     1  LIG1       -0.1124
     24 H          -1.4988    3.2367    1.6368 H       1  LIG1        0.1232
     25 O          -8.8425    2.4433   -0.8049 O.3     1  LIG1       -0.5052
     26 H          -9.1264    1.5543   -1.0444 H       1  LIG1        0.2922
@<TRIPOS>BOND
     1    12    13    1
     2    12     4    1
     3     7     3    1
     4    26    25    1
     5    25    17    1
     6    20    16    1
     7     3     4   ar
     8     3     2   ar
     9     4     5   ar
    10    16    17   ar
    11    16    15   ar
    12    17    18   ar
    13     8     2    1
    14     2     1   ar
    15     5    15    1
    16     5     6   ar
    17    15    14   ar
    18    18    21    1
    19    18    19   ar
    20     1     6   ar
    21     1     9    1
    22    14    19   ar
    23    14    22    1
    24     9    10    3
    25    22    23    3
    26    10    11    1
    27    23    24    1
