@<TRIPOS>MOLECULE
mol_data/opt/m06hf/geoms/mol2/6ef6ef-6ef.out
 38 40 0 0 0
SMALL
GASTEIGER

@<TRIPOS>ATOM
      1 C          -4.2882   -1.9975   -0.6416 C.ar    1  LIG1        0.1141
      2 C          -3.2993   -2.3081    0.2993 C.ar    1  LIG1       -0.0243
      3 C          -2.9492   -1.3407    1.2213 C.ar    1  LIG1       -0.0154
      4 C          -3.5714   -0.0920    1.1855 C.ar    1  LIG1        0.1429
      5 C          -4.5447    0.1337    0.1951 C.ar    1  LIG1        0.1164
      6 N          -4.8884   -0.8133   -0.6775 N.ar    1  LIG1       -0.2347
      7 H          -2.2057   -1.5152    1.9872 H       1  LIG1        0.0655
      8 H          -2.8395   -3.2859    0.2943 H       1  LIG1        0.0646
      9 C          -4.6984   -2.9909   -1.6151 C.1     1  LIG1       -0.0498
     10 C          -5.0128   -3.8361   -2.4078 C.1     1  LIG1       -0.1124
     11 H          -5.2983   -4.5776   -3.1176 H       1  LIG1        0.1232
     12 O          -3.2469    0.7848    2.1607 O.3     1  LIG1       -0.5046
     13 H          -3.2165    1.6944    1.8297 H       1  LIG1        0.2922
     14 C          -4.8470    2.6873    0.1070 C.ar    1  LIG1        0.1233
     15 C          -5.3586    1.3859    0.0913 C.ar    1  LIG1        0.0413
     16 C          -6.7319    1.2423   -0.1072 C.ar    1  LIG1       -0.0061
     17 C          -7.5312    2.3662   -0.2217 C.ar    1  LIG1        0.1435
     18 C          -6.9270    3.6350   -0.1139 C.ar    1  LIG1        0.1164
     19 N          -5.6203    3.7734    0.0126 N.ar    1  LIG1       -0.2340
     20 H          -7.1465    0.2443   -0.1935 H       1  LIG1        0.0662
     21 C          -3.4206    2.9301    0.2000 C.1     1  LIG1       -0.0491
     22 C          -2.2344    3.1039    0.3035 C.1     1  LIG1       -0.1124
     23 H          -1.1832    3.2696    0.3742 H       1  LIG1        0.1232
     24 O          -8.8554    2.3215   -0.4649 O.3     1  LIG1       -0.5046
     25 H          -9.1892    1.4187   -0.4293 H       1  LIG1        0.2922
     26 C          -8.8059    5.1410    0.6739 C.ar    1  LIG1        0.1226
     27 C          -7.7420    4.8817   -0.2055 C.ar    1  LIG1        0.0412
     28 C          -7.4184    5.8359   -1.1595 C.ar    1  LIG1       -0.0067
     29 C          -8.1821    6.9944   -1.2287 C.ar    1  LIG1        0.1356
     30 C          -9.2368    7.1518   -0.3271 C.ar    1  LIG1        0.0704
     31 N          -9.5314    6.2559    0.6028 N.ar    1  LIG1       -0.2424
     32 H          -6.5892    5.6879   -1.8385 H       1  LIG1        0.0662
     33 H          -9.8564    8.0433   -0.3584 H       1  LIG1        0.0867
     34 C          -9.1269    4.2180    1.7449 C.1     1  LIG1       -0.0491
     35 C          -9.3681    3.4629    2.6467 C.1     1  LIG1       -0.1124
     36 H          -9.5877    2.8036    3.4540 H       1  LIG1        0.1232
     37 O          -7.8745    7.9218   -2.1680 O.3     1  LIG1       -0.5052
     38 H          -8.4718    8.6761   -2.1146 H       1  LIG1        0.2922
@<TRIPOS>BOND
     1    11    10    1
     2    10     9    3
     3    37    38    1
     4    37    29    1
     5    32    28    1
     6     9     1    1
     7    29    28   ar
     8    29    30   ar
     9    28    27   ar
    10     6     1   ar
    11     6     5   ar
    12     1     2   ar
    13    24    25    1
    14    24    17    1
    15    33    30    1
    16    30    31   ar
    17    17    18   ar
    18    17    16   ar
    19    27    18    1
    20    27    26   ar
    21    20    16    1
    22    18    19   ar
    23    16    15   ar
    24    19    14   ar
    25    15    14   ar
    26    15     5    1
    27    14    21    1
    28     5     4   ar
    29    21    22    3
    30     8     2    1
    31     2     3   ar
    32    22    23    1
    33    31    26   ar
    34    26    34    1
    35     4     3   ar
    36     4    12    1
    37     3     7    1
    38    34    35    3
    39    13    12    1
    40    35    36    1
