@<TRIPOS>MOLECULE
mol_data/opt/m06hf/geoms/mol2/6ef6ef6ef6ef.out
 50 53 0 0 0
SMALL
GASTEIGER

@<TRIPOS>ATOM
      1 C          -3.5514   -1.6944   -1.1508 C.ar    1  LIG1        0.1141
      2 C          -3.0699   -2.2809    0.0260 C.ar    1  LIG1       -0.0243
      3 C          -3.4495   -1.7450    1.2442 C.ar    1  LIG1       -0.0154
      4 C          -4.2939   -0.6382    1.2492 C.ar    1  LIG1        0.1429
      5 C          -4.7152   -0.1120    0.0193 C.ar    1  LIG1        0.1164
      6 N          -4.3552   -0.6341   -1.1456 N.ar    1  LIG1       -0.2347
      7 H          -3.1204   -2.1591    2.1873 H       1  LIG1        0.0655
      8 H          -2.4170   -3.1399   -0.0339 H       1  LIG1        0.0646
      9 C          -3.1703   -2.2424   -2.4377 C.1     1  LIG1       -0.0498
     10 C          -2.8380   -2.7184   -3.4884 C.1     1  LIG1       -0.1124
     11 H          -2.5515   -3.1283   -4.4290 H       1  LIG1        0.1232
     12 O          -4.6742   -0.1168    2.4377 O.3     1  LIG1       -0.5046
     13 H          -5.3537    0.5575    2.3083 H       1  LIG1        0.2922
     14 C          -6.9059    1.0234   -0.5457 C.ar    1  LIG1        0.1233
     15 C          -5.6105    1.0859    0.0007 C.ar    1  LIG1        0.0413
     16 C          -5.1817    2.2909    0.5449 C.ar    1  LIG1       -0.0061
     17 C          -6.0357    3.3897    0.5156 C.ar    1  LIG1        0.1435
     18 C          -7.2996    3.2315   -0.0678 C.ar    1  LIG1        0.1164
     19 N          -7.7151    2.0784   -0.5743 N.ar    1  LIG1       -0.2340
     20 H          -4.1933    2.3978    0.9759 H       1  LIG1        0.0662
     21 C          -7.4181   -0.2203   -1.0811 C.1     1  LIG1       -0.0491
     22 C          -7.8358   -1.2613   -1.5081 C.1     1  LIG1       -0.1124
     23 H          -8.2048   -2.1826   -1.8965 H       1  LIG1        0.1232
     24 O          -5.6122    4.5549    1.0507 O.3     1  LIG1       -0.5046
     25 H          -6.3272    5.2051    1.0520 H       1  LIG1        0.2922
     26 C          -9.4433    4.3819    0.6129 C.ar    1  LIG1        0.1233
     27 C          -8.2353    4.3970   -0.1075 C.ar    1  LIG1        0.0413
     28 C          -7.9094    5.5380   -0.8311 C.ar    1  LIG1       -0.0061
     29 C          -8.7941    6.6131   -0.8302 C.ar    1  LIG1        0.1435
     30 C          -9.9787    6.4966   -0.0920 C.ar    1  LIG1        0.1164
     31 N         -10.2832    5.4129    0.6091 N.ar    1  LIG1       -0.2340
     32 H          -6.9928    5.6032   -1.4053 H       1  LIG1        0.0662
     33 C          -9.8058    3.2318    1.4141 C.1     1  LIG1       -0.0491
     34 C         -10.0946    2.2776    2.0828 C.1     1  LIG1       -0.1124
     35 H         -10.3665    1.4280    2.6661 H       1  LIG1        0.1232
     36 O          -8.4725    7.7196   -1.5322 O.3     1  LIG1       -0.5046
     37 H          -9.1236    8.4175   -1.3796 H       1  LIG1        0.2922
     38 C         -11.1534    8.3685    1.1230 C.ar    1  LIG1        0.1226
     39 C         -10.9395    7.6425   -0.0619 C.ar    1  LIG1        0.0412
     40 C         -11.6260    8.0231   -1.2095 C.ar    1  LIG1       -0.0067
     41 C         -12.5125    9.0939   -1.1339 C.ar    1  LIG1        0.1356
     42 C         -12.6683    9.7411    0.0931 C.ar    1  LIG1        0.0704
     43 N         -12.0050    9.3901    1.1854 N.ar    1  LIG1       -0.2424
     44 H         -11.5051    7.4910   -2.1455 H       1  LIG1        0.0662
     45 H         -13.3555   10.5765    0.1885 H       1  LIG1        0.0867
     46 C         -10.4215    8.0326    2.3263 C.1     1  LIG1       -0.0491
     47 C          -9.7964    7.7487    3.3107 C.1     1  LIG1       -0.1124
     48 H          -9.2539    7.4964    4.1926 H       1  LIG1        0.1232
     49 O         -13.1808    9.4583   -2.2517 O.3     1  LIG1       -0.5052
     50 H         -13.7932   10.1809   -2.0726 H       1  LIG1        0.2922
@<TRIPOS>BOND
     1    11    10    1
     2    10     9    3
     3     9     1    1
     4    49    50    1
     5    49    41    1
     6    44    40    1
     7    23    22    1
     8    36    37    1
     9    36    29    1
    10    22    21    3
    11    32    28    1
    12    40    41   ar
    13    40    39   ar
    14     1     6   ar
    15     1     2   ar
    16     6     5   ar
    17    41    42   ar
    18    21    14    1
    19    28    29   ar
    20    28    27   ar
    21    29    30   ar
    22    19    14   ar
    23    19    18   ar
    24    14    15   ar
    25    27    18    1
    26    27    26   ar
    27    30    39    1
    28    30    31   ar
    29    18    17   ar
    30    39    38   ar
    31     8     2    1
    32    15     5    1
    33    15    16   ar
    34     5     4   ar
    35     2     3   ar
    36    42    45    1
    37    42    43   ar
    38    17    16   ar
    39    17    24    1
    40    16    20    1
    41    31    26   ar
    42    26    33    1
    43    24    25    1
    44    38    43   ar
    45    38    46    1
    46     3     4   ar
    47     3     7    1
    48     4    12    1
    49    33    34    3
    50    34    35    1
    51    13    12    1
    52    46    47    3
    53    47    48    1
