@<TRIPOS>MOLECULE
mol_data/opt/m06hf/geoms/mol2/6ef6ef-6ef-6ef.out
 50 53 0 0 0
SMALL
GASTEIGER

@<TRIPOS>ATOM
      1 C          -4.4947   -2.2041   -0.0974 C.ar    1  LIG1        0.1141
      2 C          -3.1020   -2.3226   -0.0198 C.ar    1  LIG1       -0.0243
      3 C          -2.3553   -1.1674    0.1079 C.ar    1  LIG1       -0.0154
      4 C          -2.9981    0.0698    0.1681 C.ar    1  LIG1        0.1429
      5 C          -4.4030    0.0893    0.0959 C.ar    1  LIG1        0.1164
      6 N          -5.1128   -1.0299   -0.0470 N.ar    1  LIG1       -0.2347
      7 H          -1.2748   -1.1794    0.1550 H       1  LIG1        0.0655
      8 H          -2.6412   -3.2989   -0.0696 H       1  LIG1        0.0646
      9 C          -5.3143   -3.3902   -0.2543 C.1     1  LIG1       -0.0498
     10 C          -5.9627   -4.3924   -0.3829 C.1     1  LIG1       -0.1124
     11 H          -6.5470   -5.2763   -0.4941 H       1  LIG1        0.1232
     12 O          -2.2157    1.1710    0.2089 O.3     1  LIG1       -0.5046
     13 H          -2.5809    1.8459    0.8010 H       1  LIG1        0.2922
     14 C          -5.0882    2.4371    0.9101 C.ar    1  LIG1        0.1233
     15 C          -5.2214    1.3417    0.0486 C.ar    1  LIG1        0.0413
     16 C          -6.2415    1.4017   -0.9000 C.ar    1  LIG1       -0.0061
     17 C          -7.0355    2.5324   -0.9870 C.ar    1  LIG1        0.1435
     18 C          -6.7875    3.6031   -0.1055 C.ar    1  LIG1        0.1164
     19 N          -5.8479    3.5296    0.8197 N.ar    1  LIG1       -0.2340
     20 H          -6.3985    0.5502   -1.5523 H       1  LIG1        0.0662
     21 C          -4.1235    2.4285    1.9930 C.1     1  LIG1       -0.0491
     22 C          -3.3022    2.4046    2.8723 C.1     1  LIG1       -0.1124
     23 H          -2.5955    2.3886    3.6712 H       1  LIG1        0.1232
     24 O          -8.0409    2.6642   -1.8841 O.3     1  LIG1       -0.5046
     25 H          -8.0690    1.9070   -2.4794 H       1  LIG1        0.2922
     26 C          -6.9487    6.1105   -0.2664 C.ar    1  LIG1        0.1233
     27 C          -7.5818    4.8633   -0.1810 C.ar    1  LIG1        0.0413
     28 C          -8.9726    4.8318   -0.1717 C.ar    1  LIG1       -0.0061
     29 C          -9.6789    6.0251   -0.1988 C.ar    1  LIG1        0.1435
     30 C          -8.9570    7.2291   -0.2184 C.ar    1  LIG1        0.1164
     31 N          -7.6345    7.2546   -0.2854 N.ar    1  LIG1       -0.2340
     32 H          -9.4943    3.8819   -0.1615 H       1  LIG1        0.0662
     33 C          -5.5078    6.2172   -0.3792 C.1     1  LIG1       -0.0491
     34 C          -4.3177    6.3123   -0.5024 C.1     1  LIG1       -0.1124
     35 H          -3.2613    6.4021   -0.6051 H       1  LIG1        0.1232
     36 O         -11.0285    6.0920   -0.2511 O.3     1  LIG1       -0.5046
     37 H         -11.4306    5.2696    0.0471 H       1  LIG1        0.2922
     38 C         -10.5830    8.9072    0.7708 C.ar    1  LIG1        0.1226
     39 C          -9.6630    8.5440   -0.2267 C.ar    1  LIG1        0.0412
     40 C          -9.3729    9.4602   -1.2278 C.ar    1  LIG1       -0.0067
     41 C         -10.0331   10.6826   -1.2260 C.ar    1  LIG1        0.1356
     42 C         -10.9519   10.9418   -0.2078 C.ar    1  LIG1        0.0704
     43 N         -11.2092   10.0829    0.7673 N.ar    1  LIG1       -0.2424
     44 H          -8.6465    9.2329   -1.9967 H       1  LIG1        0.0662
     45 H         -11.4871   11.8864   -0.1790 H       1  LIG1        0.0867
     46 C         -10.8507    8.0315    1.8956 C.1     1  LIG1       -0.0491
     47 C         -11.0457    7.3207    2.8436 C.1     1  LIG1       -0.1124
     48 H         -11.2184    6.7050    3.6953 H       1  LIG1        0.1232
     49 O          -9.7602   11.5713   -2.2128 O.3     1  LIG1       -0.5052
     50 H         -10.2684   12.3814   -2.0955 H       1  LIG1        0.2922
@<TRIPOS>BOND
     1    25    24    1
     2    49    50    1
     3    49    41    1
     4    44    40    1
     5    24    17    1
     6    20    16    1
     7    40    41   ar
     8    40    39   ar
     9    41    42   ar
    10    17    16   ar
    11    17    18   ar
    12    16    15   ar
    13    35    34    1
    14    34    33    3
    15    11    10    1
    16    10     9    3
    17    33    26    1
    18    31    26   ar
    19    31    30   ar
    20    26    27   ar
    21     9     1    1
    22    36    29    1
    23    36    37    1
    24    39    30    1
    25    39    38   ar
    26    30    29   ar
    27    42    45    1
    28    42    43   ar
    29    29    28   ar
    30    27    28   ar
    31    27    18    1
    32    28    32    1
    33    18    19   ar
    34     1     6   ar
    35     1     2   ar
    36     8     2    1
    37     6     5   ar
    38     2     3   ar
    39    15     5    1
    40    15    14   ar
    41     5     4   ar
    42     3     7    1
    43     3     4   ar
    44     4    12    1
    45    12    13    1
    46    43    38   ar
    47    38    46    1
    48    19    14   ar
    49    14    21    1
    50    46    47    3
    51    21    22    3
    52    47    48    1
    53    22    23    1
