@<TRIPOS>MOLECULE
mol_data/opt/m06hf/geoms/mol2/6ef6ef6ef.out
 38 40 0 0 0
SMALL
GASTEIGER

@<TRIPOS>ATOM
      1 C          -4.0480   -1.9339   -0.9248 C.ar    1  LIG1        0.1141
      2 C          -3.2278   -2.2642    0.1619 C.ar    1  LIG1       -0.0243
      3 C          -3.1860   -1.4124    1.2513 C.ar    1  LIG1       -0.0154
      4 C          -3.9596   -0.2551    1.2203 C.ar    1  LIG1        0.1429
      5 C          -4.7433   -0.0050    0.0853 C.ar    1  LIG1        0.1164
      6 N          -4.7868   -0.8276   -0.9541 N.ar    1  LIG1       -0.2347
      7 H          -2.5811   -1.6171    2.1239 H       1  LIG1        0.0655
      8 H          -2.6471   -3.1751    0.1348 H       1  LIG1        0.0646
      9 C          -4.1074   -2.8150   -2.0747 C.1     1  LIG1       -0.0498
     10 C          -4.1292   -3.5658   -3.0112 C.1     1  LIG1       -0.1124
     11 H          -4.1572   -4.2217   -3.8503 H       1  LIG1        0.1232
     12 O          -3.9252    0.5787    2.2839 O.3     1  LIG1       -0.5046
     13 H          -4.5835    1.2788    2.1847 H       1  LIG1        0.2922
     14 C          -6.9828    1.1661    0.0253 C.ar    1  LIG1        0.1233
     15 C          -5.5776    1.2354    0.0304 C.ar    1  LIG1        0.0413
     16 C          -4.9775    2.4884    0.0028 C.ar    1  LIG1       -0.0061
     17 C          -5.7833    3.6224   -0.0500 C.ar    1  LIG1        0.1435
     18 C          -7.1732    3.4487   -0.0729 C.ar    1  LIG1        0.1164
     19 N          -7.7463    2.2534   -0.0274 N.ar    1  LIG1       -0.2340
     20 H          -3.9000    2.6001    0.0050 H       1  LIG1        0.0662
     21 C          -7.6526   -0.1154    0.0980 C.1     1  LIG1       -0.0491
     22 C          -8.1950   -1.1832    0.1695 C.1     1  LIG1       -0.1124
     23 H          -8.6825   -2.1288    0.2233 H       1  LIG1        0.1232
     24 O          -5.1942    4.8374   -0.0781 O.3     1  LIG1       -0.5046
     25 H          -5.8585    5.5356   -0.0076 H       1  LIG1        0.2922
     26 C          -8.9358    4.9677    0.9116 C.ar    1  LIG1        0.1226
     27 C          -8.0643    4.6473   -0.1436 C.ar    1  LIG1        0.0412
     28 C          -8.0411    5.4739   -1.2619 C.ar    1  LIG1       -0.0067
     29 C          -8.8954    6.5721   -1.3005 C.ar    1  LIG1        0.1356
     30 C          -9.7348    6.7976   -0.2086 C.ar    1  LIG1        0.0704
     31 N          -9.7500    6.0204    0.8648 N.ar    1  LIG1       -0.2424
     32 H          -7.3965    5.2654   -2.1075 H       1  LIG1        0.0662
     33 H         -10.4171    7.6423   -0.2073 H       1  LIG1        0.0867
     34 C          -8.9598    4.1598    2.1129 C.1     1  LIG1       -0.0491
     35 C          -8.9658    3.4911    3.1094 C.1     1  LIG1       -0.1124
     36 H          -8.9859    2.8950    3.9921 H       1  LIG1        0.1232
     37 O          -8.8721    7.3702   -2.3926 O.3     1  LIG1       -0.5052
     38 H          -9.5286    8.0724   -2.3247 H       1  LIG1        0.2922
@<TRIPOS>BOND
     1    11    10    1
     2    10     9    3
     3    37    38    1
     4    37    29    1
     5    32    28    1
     6     9     1    1
     7    29    28   ar
     8    29    30   ar
     9    28    27   ar
    10     6     1   ar
    11     6     5   ar
    12     1     2   ar
    13    30    33    1
    14    30    31   ar
    15    27    18    1
    16    27    26   ar
    17    24    17    1
    18    24    25    1
    19    18    17   ar
    20    18    19   ar
    21    17    16   ar
    22    19    14   ar
    23    16    20    1
    24    16    15   ar
    25    14    15   ar
    26    14    21    1
    27    15     5    1
    28     5     4   ar
    29    21    22    3
    30     8     2    1
    31     2     3   ar
    32    22    23    1
    33    31    26   ar
    34    26    34    1
    35     4     3   ar
    36     4    12    1
    37     3     7    1
    38    34    35    3
    39    13    12    1
    40    35    36    1
