@<TRIPOS>MOLECULE
mol_data/opt/m06hf/geoms/mol2/6ef6ef6ef-6ef-.out
 50 53 0 0 0
SMALL
GASTEIGER

@<TRIPOS>ATOM
      1 C          -4.5968   -2.3277   -0.2795 C.ar    1  LIG1        0.1141
      2 C          -3.2116   -2.3928   -0.0838 C.ar    1  LIG1       -0.0243
      3 C          -2.5083   -1.2173    0.1088 C.ar    1  LIG1       -0.0154
      4 C          -3.2078   -0.0134    0.0949 C.ar    1  LIG1        0.1429
      5 C          -4.5926   -0.0468   -0.1200 C.ar    1  LIG1        0.1164
      6 N          -5.2648   -1.1776   -0.2954 N.ar    1  LIG1       -0.2347
      7 H          -1.4400   -1.2010    0.2757 H       1  LIG1        0.0655
      8 H          -2.7181   -3.3541   -0.0819 H       1  LIG1        0.0646
      9 C          -5.3507   -3.5496   -0.4806 C.1     1  LIG1       -0.0498
     10 C          -5.9392   -4.5832   -0.6458 C.1     1  LIG1       -0.1124
     11 H          -6.4729   -5.4933   -0.7961 H       1  LIG1        0.1232
     12 O          -2.5221    1.1358    0.2897 O.3     1  LIG1       -0.5046
     13 H          -3.1314    1.8786    0.3921 H       1  LIG1        0.2922
     14 C          -6.4057    1.4998    0.7439 C.ar    1  LIG1        0.1233
     15 C          -5.3626    1.2338   -0.1611 C.ar    1  LIG1        0.0413
     16 C          -5.0699    2.2058   -1.1069 C.ar    1  LIG1       -0.0061
     17 C          -5.7987    3.3954   -1.1488 C.ar    1  LIG1        0.1435
     18 C          -6.8210    3.5703   -0.1999 C.ar    1  LIG1        0.1164
     19 N          -7.1013    2.6288    0.7018 N.ar    1  LIG1       -0.2340
     20 H          -4.2990    2.0525   -1.8531 H       1  LIG1        0.0662
     21 C          -6.7562    0.5446    1.7741 C.1     1  LIG1       -0.0491
     22 C          -7.0336   -0.2451    2.6340 C.1     1  LIG1       -0.1124
     23 H          -7.2832   -0.9500    3.3929 H       1  LIG1        0.1232
     24 O          -5.5176    4.2473   -2.1562 O.3     1  LIG1       -0.5046
     25 H          -5.5921    5.1725   -1.8771 H       1  LIG1        0.2922
     26 C          -7.3913    6.0840   -0.2691 C.ar    1  LIG1        0.1233
     27 C          -7.7580    4.7367   -0.1731 C.ar    1  LIG1        0.0413
     28 C          -9.1121    4.4593    0.0112 C.ar    1  LIG1       -0.0061
     29 C         -10.0274    5.4968    0.0566 C.ar    1  LIG1        0.1435
     30 C          -9.5611    6.8193   -0.0807 C.ar    1  LIG1        0.1164
     31 N          -8.2759    7.0813   -0.2364 N.ar    1  LIG1       -0.2340
     32 H          -9.4228    3.4278    0.1326 H       1  LIG1        0.0662
     33 C          -5.9995    6.4797   -0.3731 C.1     1  LIG1       -0.0491
     34 C          -4.8398    6.7804   -0.4828 C.1     1  LIG1       -0.1124
     35 H          -3.8151    7.0643   -0.5643 H       1  LIG1        0.1232
     36 O         -11.3567    5.3001    0.2219 O.3     1  LIG1       -0.5046
     37 H         -11.5409    4.3802    0.4429 H       1  LIG1        0.2922
     38 C         -10.2534    9.0837    0.7838 C.ar    1  LIG1        0.1226
     39 C         -10.5007    7.9769   -0.0403 C.ar    1  LIG1        0.0412
     40 C         -11.6389    7.9893   -0.8439 C.ar    1  LIG1       -0.0067
     41 C         -12.4673    9.1001   -0.8152 C.ar    1  LIG1        0.1356
     42 C         -12.1281   10.1647    0.0263 C.ar    1  LIG1        0.0704
     43 N         -11.0602   10.1499    0.8034 N.ar    1  LIG1       -0.2424
     44 H         -11.8648    7.1385   -1.4766 H       1  LIG1        0.0662
     45 H         -12.7671   11.0387    0.0551 H       1  LIG1        0.0867
     46 C          -9.1281    9.1118    1.6965 C.1     1  LIG1       -0.0491
     47 C          -8.2132    9.1373    2.4735 C.1     1  LIG1       -0.1124
     48 H          -7.3966    9.1646    3.1574 H       1  LIG1        0.1232
     49 O         -13.5929    9.2247   -1.5616 O.3     1  LIG1       -0.5052
     50 H         -13.7642    8.4196   -2.0614 H       1  LIG1        0.2922
@<TRIPOS>BOND
     1    24    25    1
     2    24    17    1
     3    50    49    1
     4    20    16    1
     5    49    41    1
     6    44    40    1
     7    17    16   ar
     8    17    18   ar
     9    16    15   ar
    10    40    41   ar
    11    40    39   ar
    12    41    42   ar
    13    11    10    1
    14    10     9    3
    15    35    34    1
    16    34    33    3
    17     9     1    1
    18    33    26    1
    19     6     1   ar
    20     6     5   ar
    21     1     2   ar
    22    26    31   ar
    23    26    27   ar
    24    31    30   ar
    25    18    27    1
    26    18    19   ar
    27    27    28   ar
    28    15     5    1
    29    15    14   ar
    30     5     4   ar
    31     2     8    1
    32     2     3   ar
    33    30    39    1
    34    30    29   ar
    35    39    38   ar
    36    28    29   ar
    37    28    32    1
    38    42    45    1
    39    42    43   ar
    40    29    36    1
    41     4     3   ar
    42     4    12    1
    43     3     7    1
    44    36    37    1
    45    12    13    1
    46    19    14   ar
    47    14    21    1
    48    38    43   ar
    49    38    46    1
    50    46    47    3
    51    21    22    3
    52    47    48    1
    53    22    23    1
