@<TRIPOS>MOLECULE
mol_data/opt/m06hf/geoms/mol2/6ef6ef-12ai-12ea-.out
 45 48 0 0 0
SMALL
GASTEIGER

@<TRIPOS>ATOM
      1 C          -4.2058   -2.1791    0.2994 C.ar    1  LIG1        0.1141
      2 C          -2.9201   -2.1087   -0.2526 C.ar    1  LIG1       -0.0243
      3 C          -2.4671   -0.8947   -0.7370 C.ar    1  LIG1       -0.0154
      4 C          -3.3088    0.2110   -0.6530 C.ar    1  LIG1        0.1429
      5 C          -4.5757    0.0463   -0.0750 C.ar    1  LIG1        0.1164
      6 N          -5.0082   -1.1216    0.3828 N.ar    1  LIG1       -0.2347
      7 H          -1.4891   -0.7769   -1.1831 H       1  LIG1        0.0655
      8 H          -2.3083   -2.9982   -0.2954 H       1  LIG1        0.0646
      9 C          -4.6980   -3.4430    0.8114 C.1     1  LIG1       -0.0498
     10 C          -5.0692   -4.5068    1.2262 C.1     1  LIG1       -0.1124
     11 H          -5.4110   -5.4447    1.5985 H       1  LIG1        0.1232
     12 O          -2.8690    1.3969   -1.1323 O.3     1  LIG1       -0.5046
     13 H          -3.5862    2.0440   -1.1403 H       1  LIG1        0.2922
     14 C          -6.7495    1.2411   -0.5891 C.ar    1  LIG1        0.1234
     15 C          -5.4897    1.2238    0.0389 C.ar    1  LIG1        0.0413
     16 C          -5.1074    2.3390    0.7763 C.ar    1  LIG1       -0.0060
     17 C          -5.9718    3.4250    0.8648 C.ar    1  LIG1        0.1465
     18 C          -7.1967    3.3536    0.1857 C.ar    1  LIG1        0.1486
     19 N          -7.5692    2.2840   -0.5074 N.ar    1  LIG1       -0.2310
     20 H          -4.1651    2.3681    1.3104 H       1  LIG1        0.0662
     21 C          -7.1865    0.1179   -1.3914 C.1     1  LIG1       -0.0491
     22 C          -7.5330   -0.8124   -2.0650 C.1     1  LIG1       -0.1124
     23 H          -7.8467   -1.6427   -2.6539 H       1  LIG1        0.1232
     24 O          -5.6019    4.4956    1.6009 O.3     1  LIG1       -0.5045
     25 H          -6.3764    5.0463    1.7869 H       1  LIG1        0.2922
     26 C          -8.1250    4.5018    0.2361 C.ar    1  LIG1        0.1578
     27 C          -7.9131    5.8515    0.2236 C.ar    1  LIG1       -0.0106
     28 C          -9.2090    6.4705    0.2854 C.ar    1  LIG1       -0.0009
     29 C         -10.0883    5.4290    0.3190 C.ar    1  LIG1        0.1747
     30 O          -9.4402    4.2433    0.2956 O.2     1  LIG1       -0.4498
     31 H          -6.9610    6.3513    0.1265 H       1  LIG1        0.0659
     32 C          -9.5100    7.9454    0.3357 C.3     1  LIG1       -0.0360
     33 H         -10.5104    8.1122    0.7329 H       1  LIG1        0.0279
     34 H          -9.4638    8.3782   -0.6639 H       1  LIG1        0.0279
     35 H          -8.7809    8.4454    0.9737 H       1  LIG1        0.0279
     36 C         -11.5434    5.3894    0.3802 C.ar    1  LIG1        0.1852
     37 C         -12.5069    6.1369   -0.2388 C.ar    1  LIG1        0.0734
     38 C         -13.7679    5.6318    0.2473 C.ar    1  LIG1       -0.0077
     39 C         -13.4556    4.6261    1.0953 C.ar    1  LIG1        0.0939
     40 O         -12.1177    4.4767    1.1834 O.2     1  LIG1       -0.4586
     41 H         -14.0492    3.9482    1.6823 H       1  LIG1        0.1030
     42 C         -12.3012    7.1624   -1.2173 C.1     1  LIG1       -0.0658
     43 C         -12.1509    8.0191   -2.0466 C.1     1  LIG1       -0.1138
     44 H         -12.0204    8.7701   -2.7911 H       1  LIG1        0.1232
     45 H         -14.7469    5.9805   -0.0301 H       1  LIG1        0.0661
@<TRIPOS>BOND
     1    44    43    1
     2    23    22    1
     3    22    21    3
     4    43    42    3
     5    21    14    1
     6    42    37    1
     7     7     3    1
     8    13    12    1
     9    12     4    1
    10     3     4   ar
    11     3     2   ar
    12    34    32    1
    13     4     5   ar
    14    14    19   ar
    15    14    15   ar
    16    19    18   ar
    17     8     2    1
    18     2     1   ar
    19    37    38   ar
    20    37    36   ar
    21     5    15    1
    22     5     6   ar
    23    45    38    1
    24    15    16   ar
    25    31    27    1
    26    18    26    1
    27    18    17   ar
    28    27    26   ar
    29    27    28   ar
    30    26    30   ar
    31    38    39   ar
    32    28    29   ar
    33    28    32    1
    34    30    29   ar
    35     1     6   ar
    36     1     9    1
    37    29    36    1
    38    32    33    1
    39    32    35    1
    40    36    40   ar
    41    16    17   ar
    42    16    20    1
    43     9    10    3
    44    17    24    1
    45    39    40   ar
    46    39    41    1
    47    10    11    1
    48    24    25    1
