@<TRIPOS>MOLECULE
mol_data/opt/m06hf/geoms/mol2/6ef6ef-6ef6ef-.out
 50 53 0 0 0
SMALL
GASTEIGER

@<TRIPOS>ATOM
      1 C          -4.0228   -1.9252    0.9444 C.ar    1  LIG1        0.1141
      2 C          -3.4238   -2.5059   -0.1788 C.ar    1  LIG1       -0.0243
      3 C          -3.4289   -1.7933   -1.3626 C.ar    1  LIG1       -0.0154
      4 C          -4.0124   -0.5266   -1.4056 C.ar    1  LIG1        0.1429
      5 C          -4.5828   -0.0208   -0.2238 C.ar    1  LIG1        0.1164
      6 N          -4.5880   -0.7237    0.9086 N.ar    1  LIG1       -0.2347
      7 H          -2.9996   -2.1842   -2.2750 H       1  LIG1        0.0655
      8 H          -2.9809   -3.4888   -0.1054 H       1  LIG1        0.0646
      9 C          -4.0525   -2.6457    2.2026 C.1     1  LIG1       -0.0498
     10 C          -4.0580   -3.2677    3.2294 C.1     1  LIG1       -0.1124
     11 H          -4.0660   -3.8093    4.1467 H       1  LIG1        0.1232
     12 O          -4.0595    0.0912   -2.6072 O.3     1  LIG1       -0.5046
     13 H          -3.8852    1.0411   -2.5263 H       1  LIG1        0.2922
     14 C          -4.8852    2.5001   -0.6451 C.ar    1  LIG1        0.1233
     15 C          -5.3328    1.2725   -0.1460 C.ar    1  LIG1        0.0413
     16 C          -6.5500    1.2656    0.5359 C.ar    1  LIG1       -0.0061
     17 C          -7.2847    2.4340    0.6412 C.ar    1  LIG1        0.1435
     18 C          -6.7827    3.6014    0.0322 C.ar    1  LIG1        0.1164
     19 N          -5.6015    3.6247   -0.5576 N.ar    1  LIG1       -0.2340
     20 H          -6.8873    0.3431    0.9946 H       1  LIG1        0.0662
     21 C          -3.5818    2.6264   -1.2676 C.1     1  LIG1       -0.0491
     22 C          -2.5057    2.7008   -1.8006 C.1     1  LIG1       -0.1124
     23 H          -1.5449    2.7865   -2.2547 H       1  LIG1        0.1232
     24 O          -8.4427    2.5328    1.3225 O.3     1  LIG1       -0.5046
     25 H          -8.7493    1.6707    1.6238 H       1  LIG1        0.2922
     26 C          -8.8556    4.9970   -0.4062 C.ar    1  LIG1        0.1233
     27 C          -7.5443    4.8826    0.0832 C.ar    1  LIG1        0.0413
     28 C          -6.9343    6.0261    0.5701 C.ar    1  LIG1       -0.0061
     29 C          -7.6343    7.2297    0.6098 C.ar    1  LIG1        0.1435
     30 C          -8.9568    7.2387    0.1324 C.ar    1  LIG1        0.1164
     31 N          -9.5208    6.1452   -0.3780 N.ar    1  LIG1       -0.2340
     32 H          -5.9094    6.0064    0.9166 H       1  LIG1        0.0662
     33 C          -9.5204    3.8728   -1.0365 C.1     1  LIG1       -0.0491
     34 C         -10.0567    2.9483   -1.5840 C.1     1  LIG1       -0.1124
     35 H         -10.5427    2.1352   -2.0716 H       1  LIG1        0.1232
     36 O          -6.9630    8.3258    1.0291 O.3     1  LIG1       -0.5046
     37 H          -7.5179    8.8851    1.5940 H       1  LIG1        0.2922
     38 C          -9.9922    9.4149    1.0337 C.ar    1  LIG1        0.1226
     39 C          -9.7978    8.4717    0.0199 C.ar    1  LIG1        0.0412
     40 C         -10.4778    8.6687   -1.1843 C.ar    1  LIG1       -0.0067
     41 C         -11.2711    9.7912   -1.3368 C.ar    1  LIG1        0.1356
     42 C         -11.3739   10.6934   -0.2669 C.ar    1  LIG1        0.0704
     43 N         -10.7593   10.5022    0.8825 N.ar    1  LIG1       -0.2424
     44 H         -10.3751    7.9290   -1.9698 H       1  LIG1        0.0662
     45 H         -11.9892   11.5776   -0.3785 H       1  LIG1        0.0867
     46 C          -9.3872    9.2429    2.3402 C.1     1  LIG1       -0.0491
     47 C          -8.8549    9.0863    3.4083 C.1     1  LIG1       -0.1124
     48 H          -8.4068    8.9459    4.3655 H       1  LIG1        0.1232
     49 O         -11.9608   10.0840   -2.4633 O.3     1  LIG1       -0.5052
     50 H         -11.8355    9.4005   -3.1303 H       1  LIG1        0.2922
@<TRIPOS>BOND
     1    50    49    1
     2    12    13    1
     3    12     4    1
     4    49    41    1
     5     7     3    1
     6    23    22    1
     7    35    34    1
     8    44    40    1
     9    22    21    3
    10    34    33    3
    11     4     3   ar
    12     4     5   ar
    13     3     2   ar
    14    41    40   ar
    15    41    42   ar
    16    21    14    1
    17    40    39   ar
    18    33    26    1
    19    14    19   ar
    20    14    15   ar
    21    19    18   ar
    22    26    31   ar
    23    26    27   ar
    24    45    42    1
    25    31    30   ar
    26    42    43   ar
    27     5    15    1
    28     5     6   ar
    29     2     8    1
    30     2     1   ar
    31    15    16   ar
    32    39    30    1
    33    39    38   ar
    34    18    27    1
    35    18    17   ar
    36    27    28   ar
    37    30    29   ar
    38    16    17   ar
    39    16    20    1
    40    28    29   ar
    41    28    32    1
    42    29    36    1
    43    17    24    1
    44    43    38   ar
    45     6     1   ar
    46     1     9    1
    47    36    37    1
    48    38    46    1
    49    24    25    1
    50     9    10    3
    51    46    47    3
    52    10    11    1
    53    47    48    1
