@<TRIPOS>MOLECULE
mol_data/opt/m06hf/geoms/mol2/6ef6dl13hl13de-.out
 53 56 0 0 0
SMALL
GASTEIGER

@<TRIPOS>ATOM
      1 C          -4.4504   -2.2178   -0.6279 C.ar    1  LIG1        0.1141
      2 C          -3.2310   -2.4128    0.0345 C.ar    1  LIG1       -0.0243
      3 C          -2.7051   -1.3774    0.7866 C.ar    1  LIG1       -0.0154
      4 C          -3.4062   -0.1770    0.8489 C.ar    1  LIG1        0.1429
      5 C          -4.6047   -0.0649    0.1312 C.ar    1  LIG1        0.1164
      6 N          -5.1132   -1.0660   -0.5774 N.ar    1  LIG1       -0.2347
      7 H          -1.7786   -1.4731    1.3361 H       1  LIG1        0.0655
      8 H          -2.7285   -3.3660   -0.0448 H       1  LIG1        0.0646
      9 C          -5.0244   -3.2934   -1.4102 C.1     1  LIG1       -0.0498
     10 C          -5.4704   -4.2078   -2.0473 C.1     1  LIG1       -0.1124
     11 H          -5.8820   -5.0138   -2.6102 H       1  LIG1        0.1232
     12 O          -2.8975    0.8363    1.5933 O.3     1  LIG1       -0.5046
     13 H          -3.5824    1.4884    1.7897 H       1  LIG1        0.2922
     14 C          -6.7181    1.2833    0.4400 C.ar    1  LIG1        0.1503
     15 C          -5.3613    1.2209    0.1394 C.ar    1  LIG1        0.0433
     16 C          -4.7302    2.4240   -0.2052 C.ar    1  LIG1       -0.0057
     17 C          -5.4565    3.6048   -0.2231 C.ar    1  LIG1        0.1481
     18 C          -6.8174    3.5724    0.1735 C.ar    1  LIG1        0.1320
     19 N          -7.4118    2.4185    0.4597 N.ar    1  LIG1       -0.2305
     20 H          -3.6884    2.4014   -0.4986 H       1  LIG1        0.0662
     21 N          -8.0724   -0.8344    1.1175 N.1     1  LIG1       -0.1893
     22 C          -7.4640    0.0841    0.8014 C.1     1  LIG1        0.1198
     23 O          -4.9601    4.7847   -0.6447 O.3     1  LIG1       -0.4929
     24 C          -3.6402    4.8132   -1.1731 C.3     1  LIG1        0.0789
     25 H          -3.4799    5.8347   -1.5060 H       1  LIG1        0.0660
     26 H          -2.9128    4.5551   -0.4010 H       1  LIG1        0.0660
     27 H          -3.5582    4.1296   -2.0205 H       1  LIG1        0.0660
     28 C          -7.6722    4.7548    0.2425 C.ar    1  LIG1        0.0937
     29 C          -7.4540    6.1121    0.4552 C.ar    1  LIG1        0.0948
     30 C          -8.7368    6.7282    0.4485 C.ar    1  LIG1        0.1679
     31 C          -9.6892    5.7406    0.2774 C.ar    1  LIG1        0.1088
     32 N          -9.0288    4.5583    0.1623 N.ar    1  LIG1       -0.3473
     33 H          -9.4279    3.6571   -0.0560 H       1  LIG1        0.1662
     34 N          -6.2823    6.7760    0.8085 N.pl3   1  LIG1       -0.3534
     35 H          -5.4888    6.5751    0.2172 H       1  LIG1        0.1425
     36 H          -6.4343    7.7580    0.9915 H       1  LIG1        0.1425
     37 O          -8.9702    8.0527    0.6539 O.3     1  LIG1       -0.4911
     38 C          -8.6019    8.8822   -0.4553 C.3     1  LIG1        0.0790
     39 H          -8.9512    9.8824   -0.2132 H       1  LIG1        0.0660
     40 H          -7.5175    8.8807   -0.5861 H       1  LIG1        0.0660
     41 H          -9.0871    8.5324   -1.3643 H       1  LIG1        0.0660
     42 C         -11.1458    5.7987    0.3472 C.ar    1  LIG1        0.0854
     43 C         -12.0671    6.6937   -0.1574 C.ar    1  LIG1        0.0938
     44 C         -13.3711    6.2522    0.2421 C.ar    1  LIG1        0.0600
     45 C         -13.1877    5.1032    0.9732 C.ar    1  LIG1        0.0190
     46 N         -11.8507    4.8464    1.0244 N.ar    1  LIG1       -0.3573
     47 H         -11.4166    4.1130    1.5653 H       1  LIG1        0.1655
     48 H         -13.9125    4.4700    1.4528 H       1  LIG1        0.0820
     49 N         -11.5792    8.7538   -1.6295 N.1     1  LIG1       -0.1908
     50 C         -11.7833    7.8381   -0.9674 C.1     1  LIG1        0.1026
     51 C         -14.6171    6.8824   -0.0719 C.1     1  LIG1       -0.0669
     52 C         -15.6557    7.4202   -0.3431 C.1     1  LIG1       -0.1138
     53 H         -16.5735    7.9019   -0.5881 H       1  LIG1        0.1232
@<TRIPOS>BOND
     1    11    10    1
     2    10     9    3
     3    27    24    1
     4    49    50    3
     5    25    24    1
     6     9     1    1
     7    41    38    1
     8    24    23    1
     9    24    26    1
    10    50    43    1
    11    23    17    1
    12     1     6   ar
    13     1     2   ar
    14    53    52    1
    15    40    38    1
    16     6     5   ar
    17    20    16    1
    18    38    39    1
    19    38    37    1
    20    52    51    3
    21    17    16   ar
    22    17    18   ar
    23    16    15   ar
    24    43    44   ar
    25    43    42   ar
    26    51    44    1
    27    33    32    1
    28     8     2    1
    29     2     3   ar
    30     5    15    1
    31     5     4   ar
    32    15    14   ar
    33    32    28   ar
    34    32    31   ar
    35    18    28    1
    36    18    19   ar
    37    35    34    1
    38    44    45   ar
    39    28    29   ar
    40    31    42    1
    41    31    30   ar
    42    42    46   ar
    43    14    19   ar
    44    14    22    1
    45    30    29   ar
    46    30    37    1
    47    29    34    1
    48     3     4   ar
    49     3     7    1
    50    22    21    3
    51    34    36    1
    52     4    12    1
    53    45    46   ar
    54    45    48    1
    55    46    47    1
    56    12    13    1
