@<TRIPOS>MOLECULE
mol_data/opt/m06hf/geoms/mol2/6ef6ef6ef6ef-.out
 50 53 0 0 0
SMALL
GASTEIGER

@<TRIPOS>ATOM
      1 C          -3.9793   -1.9990   -1.0084 C.ar    1  LIG1        0.1141
      2 C          -3.1419   -2.3417    0.0604 C.ar    1  LIG1       -0.0243
      3 C          -3.0970   -1.5125    1.1672 C.ar    1  LIG1       -0.0154
      4 C          -3.8856   -0.3651    1.1707 C.ar    1  LIG1        0.1429
      5 C          -4.6831   -0.0980    0.0489 C.ar    1  LIG1        0.1164
      6 N          -4.7293   -0.9000   -1.0067 N.ar    1  LIG1       -0.2347
      7 H          -2.4789   -1.7277    2.0279 H       1  LIG1        0.0655
      8 H          -2.5512   -3.2450    0.0072 H       1  LIG1        0.0646
      9 C          -4.0458   -2.8570   -2.1750 C.1     1  LIG1       -0.0498
     10 C          -4.0771   -3.5880   -3.1267 C.1     1  LIG1       -0.1124
     11 H          -4.1158   -4.2268   -3.9784 H       1  LIG1        0.1232
     12 O          -3.8515    0.4425    2.2549 O.3     1  LIG1       -0.5046
     13 H          -4.5280    1.1289    2.1865 H       1  LIG1        0.2922
     14 C          -6.9292    1.0671   -0.0428 C.ar    1  LIG1        0.1233
     15 C          -5.5248    1.1382    0.0237 C.ar    1  LIG1        0.0413
     16 C          -4.9299    2.3926    0.0838 C.ar    1  LIG1       -0.0061
     17 C          -5.7365    3.5272    0.0568 C.ar    1  LIG1        0.1435
     18 C          -7.1233    3.3524   -0.0326 C.ar    1  LIG1        0.1164
     19 N          -7.6932    2.1548   -0.0718 N.ar    1  LIG1       -0.2340
     20 H          -3.8537    2.5073    0.1355 H       1  LIG1        0.0662
     21 C          -7.6000   -0.2158   -0.0587 C.1     1  LIG1       -0.0491
     22 C          -8.1488   -1.2827   -0.0574 C.1     1  LIG1       -0.1124
     23 H          -8.6390   -2.2284   -0.0675 H       1  LIG1        0.1232
     24 O          -5.1490    4.7411    0.1211 O.3     1  LIG1       -0.5046
     25 H          -5.8165    5.4366    0.1876 H       1  LIG1        0.2922
     26 C          -8.9658    4.7946    0.9311 C.ar    1  LIG1        0.1233
     27 C          -8.0151    4.5507   -0.0756 C.ar    1  LIG1        0.0413
     28 C          -7.9308    5.4627   -1.1176 C.ar    1  LIG1       -0.0061
     29 C          -8.7758    6.5730   -1.1524 C.ar    1  LIG1        0.1435
     30 C          -9.6982    6.7284   -0.1029 C.ar    1  LIG1        0.1164
     31 N          -9.7745    5.8459    0.8933 N.ar    1  LIG1       -0.2340
     32 H          -7.2388    5.3189   -1.9394 H       1  LIG1        0.0662
     33 C          -9.0890    3.9009    2.0639 C.1     1  LIG1       -0.0491
     34 C          -9.1700    3.1602    3.0046 C.1     1  LIG1       -0.1124
     35 H          -9.2503    2.4986    3.8360 H       1  LIG1        0.1232
     36 O          -8.6965    7.3677   -2.2387 O.3     1  LIG1       -0.5046
     37 H          -8.8338    8.3003   -2.0131 H       1  LIG1        0.2922
     38 C         -10.5216    9.1611   -0.2670 C.ar    1  LIG1        0.1226
     39 C         -10.7449    7.7979   -0.0539 C.ar    1  LIG1        0.0412
     40 C         -12.0411    7.3988    0.2809 C.ar    1  LIG1       -0.0067
     41 C         -13.0432    8.3502    0.3507 C.ar    1  LIG1        0.1356
     42 C         -12.7193    9.6898    0.0866 C.ar    1  LIG1        0.0704
     43 N         -11.4946   10.0788   -0.2036 N.ar    1  LIG1       -0.2424
     44 H         -12.2305    6.3521    0.4904 H       1  LIG1        0.0662
     45 H         -13.4981   10.4405    0.1317 H       1  LIG1        0.0867
     46 C          -9.1905    9.6696   -0.5379 C.1     1  LIG1       -0.0491
     47 C          -8.0803   10.0628   -0.7840 C.1     1  LIG1       -0.1124
     48 H          -7.0984   10.4291   -0.9804 H       1  LIG1        0.1232
     49 O         -14.3302    8.0743    0.6580 O.3     1  LIG1       -0.5052
     50 H         -14.4512    7.1355    0.8374 H       1  LIG1        0.2922
@<TRIPOS>BOND
     1    11    10    1
     2    10     9    3
     3    36    37    1
     4    36    29    1
     5     9     1    1
     6    32    28    1
     7    29    28   ar
     8    29    30   ar
     9    28    27   ar
    10     1     6   ar
    11     1     2   ar
    12     6     5   ar
    13    48    47    1
    14    47    46    3
    15    46    38    1
    16    38    43   ar
    17    38    39   ar
    18    43    42   ar
    19    30    39    1
    20    30    31   ar
    21    27    18    1
    22    27    26   ar
    23    19    14   ar
    24    19    18   ar
    25    23    22    1
    26    21    22    3
    27    21    14    1
    28    39    40   ar
    29    14    15   ar
    30    18    17   ar
    31     8     2    1
    32    15     5    1
    33    15    16   ar
    34     5     4   ar
    35    17    16   ar
    36    17    24    1
    37     2     3   ar
    38    16    20    1
    39    42    45    1
    40    42    41   ar
    41    24    25    1
    42    40    41   ar
    43    40    44    1
    44    41    49    1
    45    49    50    1
    46    31    26   ar
    47    26    33    1
    48     3     4   ar
    49     3     7    1
    50     4    12    1
    51    33    34    3
    52    13    12    1
    53    34    35    1
