@<TRIPOS>MOLECULE
mol_data/opt/m06hf/geoms/mol2/6ef6ef6ef-6ef.out
 50 53 0 0 0
SMALL
GASTEIGER

@<TRIPOS>ATOM
      1 C          -3.7760   -1.8712   -0.8762 C.ar    1  LIG1        0.1141
      2 C          -3.2970   -2.4274    0.3168 C.ar    1  LIG1       -0.0243
      3 C          -3.5607   -1.7784    1.5097 C.ar    1  LIG1       -0.0154
      4 C          -4.2887   -0.5919    1.4751 C.ar    1  LIG1        0.1429
      5 C          -4.7168   -0.1059    0.2318 C.ar    1  LIG1        0.1164
      6 N          -4.4699   -0.7367   -0.9092 N.ar    1  LIG1       -0.2347
      7 H          -3.2291   -2.1628    2.4643 H       1  LIG1        0.0655
      8 H          -2.7383   -3.3520    0.2882 H       1  LIG1        0.0646
      9 C          -3.5166   -2.5402   -2.1359 C.1     1  LIG1       -0.0498
     10 C          -3.2826   -3.1214   -3.1602 C.1     1  LIG1       -0.1124
     11 H          -3.0799   -3.6250   -4.0772 H       1  LIG1        0.1232
     12 O          -4.5545    0.0381    2.6415 O.3     1  LIG1       -0.5046
     13 H          -5.1596    0.7771    2.4970 H       1  LIG1        0.2922
     14 C          -6.8076    1.2108   -0.3264 C.ar    1  LIG1        0.1233
     15 C          -5.4902    1.1717    0.1665 C.ar    1  LIG1        0.0413
     16 C          -4.9352    2.3630    0.6105 C.ar    1  LIG1       -0.0061
     17 C          -5.6640    3.5512    0.5394 C.ar    1  LIG1        0.1435
     18 C          -6.9631    3.4931    0.0062 C.ar    1  LIG1        0.1164
     19 N          -7.5011    2.3399   -0.3924 N.ar    1  LIG1       -0.2340
     20 H          -3.9277    2.4041    1.0074 H       1  LIG1        0.0662
     21 C          -7.4746   -0.0045   -0.7448 C.1     1  LIG1       -0.0491
     22 C          -8.0189   -1.0227   -1.0729 C.1     1  LIG1       -0.1124
     23 H          -8.4968   -1.9255   -1.3762 H       1  LIG1        0.1232
     24 O          -5.0915    4.6548    1.0655 O.3     1  LIG1       -0.5046
     25 H          -5.2701    5.4422    0.5281 H       1  LIG1        0.2922
     26 C          -7.5739    5.9352   -0.5225 C.ar    1  LIG1        0.1233
     27 C          -7.8984    4.6596   -0.0501 C.ar    1  LIG1        0.0413
     28 C          -9.2189    4.4410    0.3442 C.ar    1  LIG1       -0.0061
     29 C         -10.1265    5.4856    0.3157 C.ar    1  LIG1        0.1435
     30 C          -9.6754    6.7577   -0.0935 C.ar    1  LIG1        0.1164
     31 N          -8.4448    6.9487   -0.5314 N.ar    1  LIG1       -0.2340
     32 H          -9.5166    3.4427    0.6437 H       1  LIG1        0.0662
     33 C          -6.2620    6.2223   -1.0685 C.1     1  LIG1       -0.0491
     34 C          -5.1587    6.4369   -1.4991 C.1     1  LIG1       -0.1124
     35 H          -4.1922    6.6328   -1.9062 H       1  LIG1        0.1232
     36 O         -11.4298    5.3522    0.6274 O.3     1  LIG1       -0.5046
     37 H         -11.6163    4.4802    0.9918 H       1  LIG1        0.2922
     38 C         -11.2720    8.3591    1.0488 C.ar    1  LIG1        0.1226
     39 C         -10.5945    7.9329   -0.1053 C.ar    1  LIG1        0.0412
     40 C         -10.7491    8.6619   -1.2758 C.ar    1  LIG1       -0.0067
     41 C         -11.5981    9.7617   -1.2687 C.ar    1  LIG1        0.1356
     42 C         -12.2522   10.0904   -0.0800 C.ar    1  LIG1        0.0704
     43 N         -12.0838    9.4152    1.0469 N.ar    1  LIG1       -0.2424
     44 H         -10.2210    8.3866   -2.1789 H       1  LIG1        0.0662
     45 H         -12.9283   10.9397   -0.0427 H       1  LIG1        0.0867
     46 C         -11.0669    7.6956    2.3216 C.1     1  LIG1       -0.0491
     47 C         -10.8703    7.1645    3.3803 C.1     1  LIG1       -0.1124
     48 H         -10.7002    6.7067    4.3268 H       1  LIG1        0.1232
     49 O         -11.7572   10.4675   -2.4145 O.3     1  LIG1       -0.5052
     50 H         -12.3569   11.2100   -2.2820 H       1  LIG1        0.2922
@<TRIPOS>BOND
     1    11    10    1
     2    10     9    3
     3    49    50    1
     4    49    41    1
     5    44    40    1
     6     9     1    1
     7    35    34    1
     8    34    33    3
     9    23    22    1
    10    40    41   ar
    11    40    39   ar
    12    41    42   ar
    13    22    21    3
    14    33    26    1
    15     6     1   ar
    16     6     5   ar
    17     1     2   ar
    18    21    14    1
    19    31    26   ar
    20    31    30   ar
    21    26    27   ar
    22    19    14   ar
    23    19    18   ar
    24    14    15   ar
    25    39    30    1
    26    39    38   ar
    27    30    29   ar
    28    42    45    1
    29    42    43   ar
    30    27    18    1
    31    27    28   ar
    32    18    17   ar
    33    15     5    1
    34    15    16   ar
    35     5     4   ar
    36     8     2    1
    37    29    28   ar
    38    29    36    1
    39     2     3   ar
    40    28    32    1
    41    25    24    1
    42    17    16   ar
    43    17    24    1
    44    16    20    1
    45    36    37    1
    46    43    38   ar
    47    38    46    1
    48     4     3   ar
    49     4    12    1
    50     3     7    1
    51    46    47    3
    52    13    12    1
    53    47    48    1
