@<TRIPOS>MOLECULE
mol_data/opt/m06hf/geoms/mol2/6ef6ef.out
 26 27 0 0 0
SMALL
GASTEIGER

@<TRIPOS>ATOM
      1 C          -4.4385   -2.0458   -0.5230 C.ar    1  LIG1        0.1141
      2 C          -3.2030   -2.1211    0.1321 C.ar    1  LIG1       -0.0243
      3 C          -2.7092   -0.9911    0.7599 C.ar    1  LIG1       -0.0154
      4 C          -3.4617    0.1792    0.7104 C.ar    1  LIG1        0.1429
      5 C          -4.6834    0.1609    0.0222 C.ar    1  LIG1        0.1164
      6 N          -5.1557   -0.9265   -0.5729 N.ar    1  LIG1       -0.2347
      7 H          -1.7668   -0.9882    1.2899 H       1  LIG1        0.0655
      8 H          -2.6593   -3.0551    0.1419 H       1  LIG1        0.0646
      9 C          -4.9745   -3.2188   -1.1855 C.1     1  LIG1       -0.0498
     10 C          -5.3922   -4.2056   -1.7268 C.1     1  LIG1       -0.1124
     11 H          -5.7744   -5.0737   -2.2117 H       1  LIG1        0.1232
     12 O          -2.9848    1.2831    1.3291 O.3     1  LIG1       -0.5046
     13 H          -3.6519    1.9813    1.3354 H       1  LIG1        0.2922
     14 C          -6.7951    1.4658    0.5056 C.ar    1  LIG1        0.1226
     15 C          -5.5062    1.4079   -0.0548 C.ar    1  LIG1        0.0412
     16 C          -5.0057    2.5429   -0.6841 C.ar    1  LIG1       -0.0067
     17 C          -5.8031    3.6817   -0.7493 C.ar    1  LIG1        0.1356
     18 C          -7.0732    3.6353   -0.1737 C.ar    1  LIG1        0.0704
     19 N          -7.5506    2.5605    0.4373 N.ar    1  LIG1       -0.2424
     20 H          -4.0246    2.5480   -1.1439 H       1  LIG1        0.0662
     21 H          -7.7235    4.5039   -0.2098 H       1  LIG1        0.0867
     22 C          -7.3424    0.3229    1.2056 C.1     1  LIG1       -0.0491
     23 C          -7.7774   -0.6280    1.7940 C.1     1  LIG1       -0.1124
     24 H          -8.1683   -1.4758    2.3070 H       1  LIG1        0.1232
     25 O          -5.3124    4.7801   -1.3701 O.3     1  LIG1       -0.5052
     26 H          -5.9579    5.4954   -1.3703 H       1  LIG1        0.2922
@<TRIPOS>BOND
     1    11    10    1
     2    10     9    3
     3    26    25    1
     4    25    17    1
     5     9     1    1
     6    20    16    1
     7    17    16   ar
     8    17    18   ar
     9    16    15   ar
    10     6     1   ar
    11     6     5   ar
    12     1     2   ar
    13    21    18    1
    14    18    19   ar
    15    15     5    1
    16    15    14   ar
    17     5     4   ar
    18     2     8    1
    19     2     3   ar
    20    19    14   ar
    21    14    22    1
    22     4     3   ar
    23     4    12    1
    24     3     7    1
    25    22    23    3
    26    12    13    1
    27    23    24    1
