@<TRIPOS>MOLECULE
mol_data/opt/m06hf/geoms/mol2/6ef6ef-6ef-6ef-.out
 50 53 0 0 0
SMALL
GASTEIGER

@<TRIPOS>ATOM
      1 C          -4.5306   -2.2081    0.2807 C.ar    1  LIG1        0.1141
      2 C          -3.2379   -2.4164   -0.2135 C.ar    1  LIG1       -0.0243
      3 C          -2.5282   -1.3211   -0.6667 C.ar    1  LIG1       -0.0154
      4 C          -3.1042   -0.0514   -0.6112 C.ar    1  LIG1        0.1429
      5 C          -4.4051    0.0620   -0.0900 C.ar    1  LIG1        0.1164
      6 N          -5.0887   -1.0037    0.3273 N.ar    1  LIG1       -0.2347
      7 H          -1.5308   -1.4074   -1.0762 H       1  LIG1        0.0655
      8 H          -2.8257   -3.4149   -0.2384 H       1  LIG1        0.0646
      9 C          -5.3145   -3.3322    0.7548 C.1     1  LIG1       -0.0498
     10 C          -5.9331   -4.2857    1.1413 C.1     1  LIG1       -0.1124
     11 H          -6.4888   -5.1254    1.4896 H       1  LIG1        0.1232
     12 O          -2.3972    0.9729   -1.1381 O.3     1  LIG1       -0.5046
     13 H          -2.4832    1.7756   -0.6019 H       1  LIG1        0.2922
     14 C          -4.7257    2.5697    0.4168 C.ar    1  LIG1        0.1233
     15 C          -5.1876    1.3378   -0.0620 C.ar    1  LIG1        0.0413
     16 C          -6.5106    1.2830   -0.4967 C.ar    1  LIG1       -0.0061
     17 C          -7.2882    2.4281   -0.4843 C.ar    1  LIG1        0.1435
     18 C          -6.7168    3.6302   -0.0236 C.ar    1  LIG1        0.1164
     19 N          -5.4749    3.6727    0.4255 N.ar    1  LIG1       -0.2340
     20 H          -6.9113    0.3332   -0.8322 H       1  LIG1        0.0662
     21 C          -3.3928    2.7054    0.9725 C.1     1  LIG1       -0.0491
     22 C          -2.2745    2.7912    1.4080 C.1     1  LIG1       -0.1124
     23 H          -1.2937    2.8775    1.8177 H       1  LIG1        0.1232
     24 O          -8.5789    2.4471   -0.8962 O.3     1  LIG1       -0.5046
     25 H          -8.8292    1.5961   -1.2738 H       1  LIG1        0.2922
     26 C          -6.9709    6.0850   -0.5540 C.ar    1  LIG1        0.1233
     27 C          -7.4978    4.9006   -0.0188 C.ar    1  LIG1        0.0413
     28 C          -8.7776    4.9429    0.5236 C.ar    1  LIG1       -0.0061
     29 C          -9.4705    6.1438    0.5430 C.ar    1  LIG1        0.1435
     30 C          -8.8544    7.2855    0.0055 C.ar    1  LIG1        0.1164
     31 N          -7.6460    7.2335   -0.5339 N.ar    1  LIG1       -0.2340
     32 H          -9.2254    4.0401    0.9236 H       1  LIG1        0.0662
     33 C          -5.6755    6.1130   -1.2033 C.1     1  LIG1       -0.0491
     34 C          -4.6163    6.1507   -1.7661 C.1     1  LIG1       -0.1124
     35 H          -3.6732    6.1938   -2.2591 H       1  LIG1        0.1232
     36 O         -10.7226    6.2638    1.0553 O.3     1  LIG1       -0.5046
     37 H         -10.9862    5.4510    1.5002 H       1  LIG1        0.2922
     38 C          -8.9198    9.7639    0.4786 C.ar    1  LIG1        0.1226
     39 C          -9.5527    8.6047    0.0107 C.ar    1  LIG1        0.0412
     40 C         -10.8560    8.7103   -0.4702 C.ar    1  LIG1       -0.0067
     41 C         -11.4665    9.9542   -0.4870 C.ar    1  LIG1        0.1356
     42 C         -10.7499   11.0562   -0.0102 C.ar    1  LIG1        0.0704
     43 N          -9.5201   10.9590    0.4622 N.ar    1  LIG1       -0.2424
     44 H         -11.3764    7.8253   -0.8183 H       1  LIG1        0.0662
     45 H         -11.2155   12.0340   -0.0197 H       1  LIG1        0.0867
     46 C          -7.5862    9.7202    1.0435 C.1     1  LIG1       -0.0491
     47 C          -6.4886    9.6922    1.5280 C.1     1  LIG1       -0.1124
     48 H          -5.5083    9.6672    1.9433 H       1  LIG1        0.1232
     49 O         -12.7268   10.1723   -0.9414 O.3     1  LIG1       -0.5052
     50 H         -13.1211    9.3540   -1.2603 H       1  LIG1        0.2922
@<TRIPOS>BOND
     1    35    34    1
     2    34    33    3
     3    25    24    1
     4    50    49    1
     5    33    26    1
     6    12     4    1
     7    12    13    1
     8     7     3    1
     9    49    41    1
    10    24    17    1
    11    20    16    1
    12    44    40    1
    13     3     4   ar
    14     3     2   ar
    15     4     5   ar
    16    26    31   ar
    17    26    27   ar
    18    31    30   ar
    19    16    17   ar
    20    16    15   ar
    21    41    40   ar
    22    41    42   ar
    23    17    18   ar
    24    40    39   ar
    25     8     2    1
    26     2     1   ar
    27     5    15    1
    28     5     6   ar
    29    15    14   ar
    30    18    27    1
    31    18    19   ar
    32    45    42    1
    33    27    28   ar
    34    42    43   ar
    35    30    39    1
    36    30    29   ar
    37    39    38   ar
    38     1     6   ar
    39     1     9    1
    40    14    19   ar
    41    14    21    1
    42    43    38   ar
    43    38    46    1
    44    28    29   ar
    45    28    32    1
    46    29    36    1
    47     9    10    3
    48    21    22    3
    49    46    47    3
    50    36    37    1
    51    10    11    1
    52    22    23    1
    53    47    48    1
