@<TRIPOS>MOLECULE
mol_data/opt/m06hf/geoms/mol2/6eg.out
 14 14 0 0 0
SMALL
GASTEIGER

@<TRIPOS>ATOM
      1 C          -4.6030   -2.0265    0.0001 C.ar    1  LIG1        0.1132
      2 C          -3.2060   -2.0334   -0.0000 C.ar    1  LIG1       -0.0268
      3 C          -2.5344   -0.8201   -0.0002 C.ar    1  LIG1       -0.0445
      4 C          -3.2760    0.3595   -0.0003 C.ar    1  LIG1        0.0230
      5 C          -4.6711    0.2559   -0.0002 C.ar    1  LIG1        0.0421
      6 N          -5.3182   -0.9004   -0.0000 N.ar    1  LIG1       -0.2456
      7 H          -1.4520   -0.7896   -0.0002 H       1  LIG1        0.0630
      8 H          -2.6733   -2.9733    0.0001 H       1  LIG1        0.0646
      9 H          -5.2890    1.1467   -0.0002 H       1  LIG1        0.0841
     10 C          -5.3277   -3.2821    0.0002 C.1     1  LIG1       -0.0498
     11 C          -5.8985   -4.3382    0.0003 C.1     1  LIG1       -0.1124
     12 H          -6.4175   -5.2688    0.0005 H       1  LIG1        0.1232
     13 S          -2.4226    1.9135   -0.0005 S.3     1  LIG1       -0.1412
     14 H          -3.5199    2.6773   -0.0005 H       1  LIG1        0.1072
@<TRIPOS>BOND
     1    14    13    1
     2    13     4    1
     3     4     5   ar
     4     4     3   ar
     5     9     5    1
     6     7     3    1
     7     5     6   ar
     8     3     2   ar
     9     6     1   ar
    10     2     1   ar
    11     2     8    1
    12     1    10    1
    13    10    11    3
    14    11    12    1
