@<TRIPOS>MOLECULE
mol_data/opt/m06hf/geoms/mol2/6eh12hh-13eh-6el.out
 53 56 0 0 0
SMALL
GASTEIGER

@<TRIPOS>ATOM
      1 C          -4.4394   -2.0993    0.1414 C.ar    1  LIG1        0.1140
      2 C          -3.0942   -2.1425   -0.2303 C.ar    1  LIG1       -0.0260
      3 C          -2.4754   -0.9576   -0.5955 C.ar    1  LIG1       -0.0362
      4 C          -3.1996    0.2327   -0.5659 C.ar    1  LIG1        0.0541
      5 C          -4.5294    0.1828   -0.0957 C.ar    1  LIG1        0.1298
      6 N          -5.1298   -0.9636    0.2138 N.ar    1  LIG1       -0.2334
      7 H          -1.4452   -0.9537   -0.9306 H       1  LIG1        0.0637
      8 H          -2.5703   -3.0867   -0.2530 H       1  LIG1        0.0646
      9 C          -5.1485   -3.3208    0.4706 C.1     1  LIG1       -0.0498
     10 C          -5.7385   -4.3338    0.7337 C.1     1  LIG1       -0.1124
     11 H          -6.2671   -5.2278    0.9725 H       1  LIG1        0.1232
     12 N          -2.6481    1.4508   -0.9801 N.pl3   1  LIG1       -0.3562
     13 H          -1.8021    1.3476   -1.5262 H       1  LIG1        0.1424
     14 H          -3.3296    2.0380   -1.4551 H       1  LIG1        0.1424
     15 C          -5.3324    1.4057    0.0322 C.ar    1  LIG1        0.1781
     16 C          -5.0691    2.6961    0.4155 C.ar    1  LIG1        0.0943
     17 C          -6.3405    3.3855    0.4097 C.ar    1  LIG1        0.0942
     18 C          -7.2637    2.4599    0.0333 C.ar    1  LIG1        0.1755
     19 O          -6.6692    1.2695   -0.1995 O.2     1  LIG1       -0.4479
     20 N          -3.9177    3.3180    0.8624 N.pl3   1  LIG1       -0.3535
     21 H          -3.0522    2.8718    0.5786 H       1  LIG1        0.1425
     22 H          -3.9489    4.3191    0.7048 H       1  LIG1        0.1425
     23 N          -6.4486    4.7465    0.7536 N.pl3   1  LIG1       -0.3535
     24 H          -7.3269    5.1539    0.4500 H       1  LIG1        0.1425
     25 H          -6.3270    4.8819    1.7538 H       1  LIG1        0.1425
     26 C          -8.7090    2.4387   -0.1189 C.ar    1  LIG1        0.1019
     27 C          -9.6778    3.4026   -0.3777 C.ar    1  LIG1        0.0742
     28 C         -10.9292    2.7219   -0.4427 C.ar    1  LIG1        0.0666
     29 C         -10.6819    1.3727   -0.2194 C.ar    1  LIG1        0.0719
     30 N          -9.3323    1.2495   -0.0394 N.ar    1  LIG1       -0.3492
     31 H          -8.8511    0.3699    0.1188 H       1  LIG1        0.1661
     32 C          -9.4896    4.8009   -0.6053 C.1     1  LIG1       -0.0656
     33 C          -9.3706    5.9829   -0.8091 C.1     1  LIG1       -0.1138
     34 H          -9.2599    7.0229   -1.0133 H       1  LIG1        0.1232
     35 N         -12.1823    3.3340   -0.7073 N.pl3   1  LIG1       -0.3554
     36 H         -12.1183    4.3335   -0.5375 H       1  LIG1        0.1424
     37 H         -12.4544    3.1940   -1.6779 H       1  LIG1        0.1424
     38 C         -11.2045   -1.1184   -0.0820 C.ar    1  LIG1        0.1225
     39 C         -11.6062    0.2276   -0.1484 C.ar    1  LIG1        0.0374
     40 C         -12.9847    0.4952   -0.1239 C.ar    1  LIG1       -0.0066
     41 C         -13.8782   -0.5592   -0.0618 C.ar    1  LIG1        0.1388
     42 C         -13.3729   -1.8687   -0.0212 C.ar    1  LIG1        0.0706
     43 N         -12.0837   -2.1295   -0.0238 N.ar    1  LIG1       -0.2424
     44 H         -13.3052    1.5284   -0.1384 H       1  LIG1        0.0662
     45 H         -14.0647   -2.7008    0.0212 H       1  LIG1        0.0867
     46 C          -9.8100   -1.5248   -0.0481 C.1     1  LIG1       -0.0491
     47 C          -8.6498   -1.8446    0.0063 C.1     1  LIG1       -0.1124
     48 H          -7.6109   -2.0973    0.0708 H       1  LIG1        0.1232
     49 O         -15.2229   -0.4322   -0.0327 O.3     1  LIG1       -0.4936
     50 C         -15.7542    0.8806   -0.0731 C.3     1  LIG1        0.0789
     51 H         -16.8339    0.7646   -0.0470 H       1  LIG1        0.0660
     52 H         -15.4188    1.4577    0.7916 H       1  LIG1        0.0660
     53 H         -15.4550    1.3874   -0.9939 H       1  LIG1        0.0660
@<TRIPOS>BOND
     1    37    35    1
     2    13    12    1
     3    14    12    1
     4    34    33    1
     5    53    50    1
     6    12     4    1
     7     7     3    1
     8    33    32    3
     9    35    36    1
    10    35    28    1
    11    32    27    1
    12     3     4   ar
    13     3     2   ar
    14     4     5   ar
    15    28    27   ar
    16    28    29   ar
    17    27    26   ar
    18     8     2    1
    19     2     1   ar
    20    29    39    1
    21    29    30   ar
    22    19    15   ar
    23    19    18   ar
    24    39    40   ar
    25    39    38   ar
    26    44    40    1
    27    40    41   ar
    28    26    30   ar
    29    26    18    1
    30     5    15    1
    31     5     6   ar
    32    38    46    1
    33    38    43   ar
    34    50    51    1
    35    50    49    1
    36    50    52    1
    37    41    49    1
    38    41    42   ar
    39    46    47    3
    40    30    31    1
    41    43    42   ar
    42    42    45    1
    43    47    48    1
    44    15    16   ar
    45    18    17   ar
    46     1     6   ar
    47     1     9    1
    48    17    16   ar
    49    17    23    1
    50    16    20    1
    51    24    23    1
    52     9    10    3
    53    21    20    1
    54    22    20    1
    55    10    11    1
    56    23    25    1
