@<TRIPOS>MOLECULE
mol_data/opt/m06hf/geoms/mol2/6eh6eh-6eh-6eh.out
 54 57 0 0 0
SMALL
GASTEIGER

@<TRIPOS>ATOM
      1 C          -4.0134   -1.8509   -1.1617 C.ar    1  LIG1        0.1139
      2 C          -3.1767   -2.3422   -0.1563 C.ar    1  LIG1       -0.0260
      3 C          -3.0179   -1.5988    0.9980 C.ar    1  LIG1       -0.0363
      4 C          -3.6783   -0.3715    1.1363 C.ar    1  LIG1        0.0511
      5 C          -4.4720    0.0506    0.0456 C.ar    1  LIG1        0.0956
      6 N          -4.6427   -0.6832   -1.0466 N.ar    1  LIG1       -0.2365
      7 H          -2.3964   -1.9639    1.8064 H       1  LIG1        0.0637
      8 H          -2.6784   -3.2922   -0.2890 H       1  LIG1        0.0646
      9 C          -4.2206   -2.6166   -2.3743 C.1     1  LIG1       -0.0498
     10 C          -4.3720   -3.2752   -3.3673 C.1     1  LIG1       -0.1124
     11 H          -4.5119   -3.8467   -4.2552 H       1  LIG1        0.1232
     12 N          -3.6148    0.3353    2.3185 N.pl3   1  LIG1       -0.3563
     13 H          -2.8352    0.1075    2.9182 H       1  LIG1        0.1424
     14 H          -3.7871    1.3285    2.2592 H       1  LIG1        0.1424
     15 C          -4.6708    2.5902    0.2583 C.ar    1  LIG1        0.1231
     16 C          -5.2543    1.3267    0.0808 C.ar    1  LIG1        0.0378
     17 C          -6.6257    1.2657   -0.1292 C.ar    1  LIG1       -0.0270
     18 C          -7.3862    2.4343   -0.1283 C.ar    1  LIG1        0.0517
     19 C          -6.6987    3.6468    0.0985 C.ar    1  LIG1        0.0957
     20 N          -5.3919    3.7131    0.2727 N.ar    1  LIG1       -0.2358
     21 H          -7.0895    0.3029   -0.3067 H       1  LIG1        0.0644
     22 C          -3.2356    2.7398    0.4062 C.1     1  LIG1       -0.0491
     23 C          -2.0456    2.8472    0.5359 C.1     1  LIG1       -0.1124
     24 H          -0.9902    2.9552    0.6329 H       1  LIG1        0.1232
     25 N          -8.7565    2.4174   -0.2971 N.pl3   1  LIG1       -0.3563
     26 H          -9.1732    3.2865   -0.6022 H       1  LIG1        0.1424
     27 H          -9.1345    1.5983   -0.7497 H       1  LIG1        0.1424
     28 C          -7.3880    5.8379   -0.9465 C.ar    1  LIG1        0.1231
     29 C          -7.4687    4.9300    0.1183 C.ar    1  LIG1        0.0378
     30 C          -8.2995    5.2376    1.1847 C.ar    1  LIG1       -0.0270
     31 C          -9.0235    6.4350    1.1957 C.ar    1  LIG1        0.0517
     32 C          -8.8941    7.2625    0.0566 C.ar    1  LIG1        0.0957
     33 N          -8.0885    6.9703   -0.9551 N.ar    1  LIG1       -0.2358
     34 H          -8.3697    4.5535    2.0229 H       1  LIG1        0.0644
     35 C          -6.5485    5.5539   -2.0915 C.1     1  LIG1       -0.0491
     36 C          -5.8535    5.2908   -3.0343 C.1     1  LIG1       -0.1124
     37 H          -5.2322    5.0611   -3.8683 H       1  LIG1        0.1232
     38 N          -9.7551    6.8106    2.2994 N.pl3   1  LIG1       -0.3563
     39 H         -10.5077    7.4656    2.1467 H       1  LIG1        0.1424
     40 H          -9.9897    6.0720    2.9453 H       1  LIG1        0.1424
     41 C         -11.0008    8.7015   -0.0076 C.ar    1  LIG1        0.1224
     42 C          -9.6059    8.5739   -0.0577 C.ar    1  LIG1        0.0377
     43 C          -8.8489    9.7175   -0.2862 C.ar    1  LIG1       -0.0277
     44 C          -9.4823   10.9504   -0.4289 C.ar    1  LIG1        0.0436
     45 C         -10.8862   10.9646   -0.3265 C.ar    1  LIG1        0.0496
     46 N         -11.6145    9.8830   -0.1326 N.ar    1  LIG1       -0.2442
     47 H          -7.7717    9.6297   -0.3608 H       1  LIG1        0.0644
     48 H         -11.4230   11.9032   -0.4175 H       1  LIG1        0.0849
     49 C         -11.8561    7.5405    0.1509 C.1     1  LIG1       -0.0491
     50 C         -12.5576    6.5751    0.2952 C.1     1  LIG1       -0.1124
     51 H         -13.1912    5.7265    0.4111 H       1  LIG1        0.1232
     52 N          -8.7766   12.1240   -0.6106 N.pl3   1  LIG1       -0.3568
     53 H          -7.8343   12.0326   -0.9593 H       1  LIG1        0.1424
     54 H          -9.2842   12.8974   -1.0132 H       1  LIG1        0.1424
@<TRIPOS>BOND
     1    11    10    1
     2    37    36    1
     3    10     9    3
     4    36    35    3
     5     9     1    1
     6    35    28    1
     7     1     6   ar
     8     1     2   ar
     9     6     5   ar
    10    54    52    1
    11    53    52    1
    12    33    28   ar
    13    33    32   ar
    14    28    29   ar
    15    27    25    1
    16    52    44    1
    17    26    25    1
    18    44    45   ar
    19    44    43   ar
    20    48    45    1
    21    47    43    1
    22    45    46   ar
    23    21    17    1
    24    25    18    1
    25     8     2    1
    26    43    42   ar
    27     2     3   ar
    28    46    41   ar
    29    17    18   ar
    30    17    16   ar
    31    18    19   ar
    32    42    41   ar
    33    42    32    1
    34    41    49    1
    35     5    16    1
    36     5     4   ar
    37    32    31   ar
    38    16    15   ar
    39    19    29    1
    40    19    20   ar
    41    29    30   ar
    42    49    50    3
    43    15    20   ar
    44    15    22    1
    45    50    51    1
    46    22    23    3
    47    23    24    1
    48     3     4   ar
    49     3     7    1
    50     4    12    1
    51    30    31   ar
    52    30    34    1
    53    31    38    1
    54    39    38    1
    55    14    12    1
    56    38    40    1
    57    12    13    1
