@<TRIPOS>MOLECULE
mol_data/opt/m06hf/geoms/mol2/6eh6eh-6eh.out
 41 43 0 0 0
SMALL
GASTEIGER

@<TRIPOS>ATOM
      1 C          -4.4652   -2.1074   -0.4302 C.ar    1  LIG1        0.1139
      2 C          -3.1140   -2.2030   -0.0865 C.ar    1  LIG1       -0.0260
      3 C          -2.4487   -1.0608    0.3175 C.ar    1  LIG1       -0.0363
      4 C          -3.1262    0.1641    0.3623 C.ar    1  LIG1        0.0511
      5 C          -4.4805    0.1580   -0.0423 C.ar    1  LIG1        0.0956
      6 N          -5.1198   -0.9485   -0.3993 N.ar    1  LIG1       -0.2365
      7 H          -1.4085   -1.1058    0.6161 H       1  LIG1        0.0637
      8 H          -2.6150   -3.1607   -0.1296 H       1  LIG1        0.0646
      9 C          -5.2003   -3.2898   -0.8321 C.1     1  LIG1       -0.0498
     10 C          -5.7836   -4.2866   -1.1617 C.1     1  LIG1       -0.1124
     11 H          -6.3132   -5.1617   -1.4587 H       1  LIG1        0.1232
     12 N          -2.5126    1.2943    0.8608 N.pl3   1  LIG1       -0.3563
     13 H          -1.5034    1.2780    0.8561 H       1  LIG1        0.1424
     14 H          -2.8914    2.1803    0.5592 H       1  LIG1        0.1424
     15 C          -5.0255    2.5620   -0.7295 C.ar    1  LIG1        0.1231
     16 C          -5.3244    1.3943   -0.0109 C.ar    1  LIG1        0.0378
     17 C          -6.4933    1.3763    0.7350 C.ar    1  LIG1       -0.0270
     18 C          -7.3315    2.4932    0.7779 C.ar    1  LIG1        0.0517
     19 C          -6.9340    3.6162    0.0121 C.ar    1  LIG1        0.0957
     20 N          -5.8152    3.6360   -0.6941 N.ar    1  LIG1       -0.2358
     21 H          -6.7478    0.4803    1.2881 H       1  LIG1        0.0644
     22 C          -3.8508    2.6494   -1.5756 C.1     1  LIG1       -0.0491
     23 C          -2.8668    2.7142   -2.2626 C.1     1  LIG1       -0.1124
     24 H          -2.0067    2.7737   -2.8887 H       1  LIG1        0.1232
     25 N          -8.4373    2.5159    1.5949 N.pl3   1  LIG1       -0.3563
     26 H          -9.1708    3.1660    1.3536 H       1  LIG1        0.1424
     27 H          -8.7824    1.6147    1.8903 H       1  LIG1        0.1424
     28 C          -9.0514    4.9721   -0.4210 C.ar    1  LIG1        0.1224
     29 C          -7.7183    4.8912    0.0054 C.ar    1  LIG1        0.0377
     30 C          -7.0782    6.0644    0.3891 C.ar    1  LIG1       -0.0277
     31 C          -7.7739    7.2715    0.3696 C.ar    1  LIG1        0.0436
     32 C          -9.1181    7.2284   -0.0433 C.ar    1  LIG1        0.0496
     33 N          -9.7281    6.1252   -0.4305 N.ar    1  LIG1       -0.2442
     34 H          -6.0392    6.0243    0.6924 H       1  LIG1        0.0644
     35 H          -9.7057    8.1406   -0.0618 H       1  LIG1        0.0849
     36 C          -9.7533    3.7995   -0.9058 C.1     1  LIG1       -0.0491
     37 C         -10.3244    2.8170   -1.2965 C.1     1  LIG1       -0.1124
     38 H         -10.8313    1.9535   -1.6606 H       1  LIG1        0.1232
     39 N          -7.1997    8.4596    0.7850 N.pl3   1  LIG1       -0.3568
     40 H          -6.1914    8.4955    0.7700 H       1  LIG1        0.1424
     41 H          -7.6358    9.3060    0.4503 H       1  LIG1        0.1424
@<TRIPOS>BOND
     1    24    23    1
     2    23    22    3
     3    38    37    1
     4    22    15    1
     5    11    10    1
     6    37    36    3
     7    10     9    3
     8    36    28    1
     9     9     1    1
    10    15    20   ar
    11    15    16   ar
    12    20    19   ar
    13    33    28   ar
    14    33    32   ar
    15     1     6   ar
    16     1     2   ar
    17    28    29   ar
    18     6     5   ar
    19     8     2    1
    20     2     3   ar
    21    35    32    1
    22    32    31   ar
    23     5    16    1
    24     5     4   ar
    25    16    17   ar
    26    29    19    1
    27    29    30   ar
    28    19    18   ar
    29     3     4   ar
    30     3     7    1
    31     4    12    1
    32    31    30   ar
    33    31    39    1
    34    30    34    1
    35    41    39    1
    36    14    12    1
    37    17    18   ar
    38    17    21    1
    39    40    39    1
    40    18    25    1
    41    13    12    1
    42    26    25    1
    43    25    27    1
