@<TRIPOS>MOLECULE
mol_data/opt/m06hf/geoms/mol2/6eh6eh6eh-6eh.out
 54 57 0 0 0
SMALL
GASTEIGER

@<TRIPOS>ATOM
      1 C          -4.2791   -2.1629    0.6257 C.ar    1  LIG1        0.1139
      2 C          -3.0850   -2.2919   -0.0887 C.ar    1  LIG1       -0.0260
      3 C          -2.6223   -1.2120   -0.8198 C.ar    1  LIG1       -0.0363
      4 C          -3.3565   -0.0224   -0.8253 C.ar    1  LIG1        0.0511
      5 C          -4.5416    0.0048   -0.0613 C.ar    1  LIG1        0.0956
      6 N          -4.9835   -1.0323    0.6331 N.ar    1  LIG1       -0.2365
      7 H          -1.7018   -1.2812   -1.3864 H       1  LIG1        0.0637
      8 H          -2.5454   -3.2281   -0.0643 H       1  LIG1        0.0646
      9 C          -4.7877   -3.2838    1.3910 C.1     1  LIG1       -0.0498
     10 C          -5.1805   -4.2322    2.0149 C.1     1  LIG1       -0.1124
     11 H          -5.5427   -5.0642    2.5733 H       1  LIG1        0.1232
     12 N          -2.9238    1.0992   -1.5160 N.pl3   1  LIG1       -0.3563
     13 H          -2.2941    0.9160   -2.2839 H       1  LIG1        0.1424
     14 H          -3.6471    1.7693   -1.7436 H       1  LIG1        0.1424
     15 C          -6.6589    1.2956   -0.5531 C.ar    1  LIG1        0.1231
     16 C          -5.3634    1.2542   -0.0185 C.ar    1  LIG1        0.0378
     17 C          -4.8550    2.4092    0.5571 C.ar    1  LIG1       -0.0270
     18 C          -5.6253    3.5761    0.6116 C.ar    1  LIG1        0.0517
     19 C          -6.9056    3.5163    0.0146 C.ar    1  LIG1        0.0957
     20 N          -7.3926    2.4059   -0.5239 N.ar    1  LIG1       -0.2358
     21 H          -3.8599    2.3965    0.9883 H       1  LIG1        0.0644
     22 C          -7.2402    0.1272   -1.1807 C.1     1  LIG1       -0.0491
     23 C          -7.7079   -0.8455   -1.7071 C.1     1  LIG1       -0.1124
     24 H          -8.1305   -1.7110   -2.1621 H       1  LIG1        0.1232
     25 N          -5.1761    4.6866    1.2923 N.pl3   1  LIG1       -0.3563
     26 H          -4.1852    4.7090    1.4827 H       1  LIG1        0.1424
     27 H          -5.5436    5.5790    0.9966 H       1  LIG1        0.1424
     28 C          -7.5523    5.9369   -0.5150 C.ar    1  LIG1        0.1231
     29 C          -7.8502    4.6771    0.0256 C.ar    1  LIG1        0.0378
     30 C          -9.1156    4.4858    0.5610 C.ar    1  LIG1       -0.0270
     31 C         -10.0497    5.5239    0.5720 C.ar    1  LIG1        0.0517
     32 C          -9.6419    6.7528   -0.0013 C.ar    1  LIG1        0.0957
     33 N          -8.4339    6.9380   -0.5066 N.ar    1  LIG1       -0.2358
     34 H          -9.3690    3.5156    0.9707 H       1  LIG1        0.0644
     35 C          -6.2746    6.2071   -1.1463 C.1     1  LIG1       -0.0491
     36 C          -5.2081    6.4222   -1.6578 C.1     1  LIG1       -0.1124
     37 H          -4.2737    6.6210   -2.1292 H       1  LIG1        0.1232
     38 N         -11.2706    5.3729    1.1832 N.pl3   1  LIG1       -0.3563
     39 H         -12.0085    5.9975    0.8936 H       1  LIG1        0.1424
     40 H         -11.5778    4.4229    1.3291 H       1  LIG1        0.1424
     41 C         -11.7747    7.9661   -0.6829 C.ar    1  LIG1        0.1224
     42 C         -10.5412    7.9493   -0.0163 C.ar    1  LIG1        0.0377
     43 C         -10.1190    9.1126    0.6168 C.ar    1  LIG1       -0.0277
     44 C         -10.9308   10.2453    0.5975 C.ar    1  LIG1        0.0436
     45 C         -12.1624   10.1382   -0.0755 C.ar    1  LIG1        0.0496
     46 N         -12.5626    9.0460   -0.6967 N.ar    1  LIG1       -0.2442
     47 H          -9.1564    9.1250    1.1134 H       1  LIG1        0.0644
     48 H         -12.8355   10.9888   -0.1058 H       1  LIG1        0.0849
     49 C         -12.2389    6.8042   -1.4157 C.1     1  LIG1       -0.0491
     50 C         -12.6055    5.8264   -2.0102 C.1     1  LIG1       -0.1124
     51 H         -12.9266    4.9669   -2.5522 H       1  LIG1        0.1232
     52 N         -10.5813   11.4129    1.2508 N.pl3   1  LIG1       -0.3568
     53 H          -9.5999   11.5377    1.4486 H       1  LIG1        0.1424
     54 H         -11.0388   12.2557    0.9367 H       1  LIG1        0.1424
@<TRIPOS>BOND
     1    51    50    1
     2    13    12    1
     3    24    23    1
     4    37    36    1
     5    50    49    3
     6    14    12    1
     7    23    22    3
     8    36    35    3
     9    12     4    1
    10    49    41    1
    11     7     3    1
    12    22    15    1
    13    35    28    1
    14     4     3   ar
    15     4     5   ar
    16     3     2   ar
    17    46    41   ar
    18    46    45   ar
    19    41    42   ar
    20    15    20   ar
    21    15    16   ar
    22    20    19   ar
    23    28    33   ar
    24    28    29   ar
    25    33    32   ar
    26    48    45    1
    27     2     8    1
    28     2     1   ar
    29    45    44   ar
    30     5    16    1
    31     5     6   ar
    32    16    17   ar
    33    42    32    1
    34    42    43   ar
    35    32    31   ar
    36    19    29    1
    37    19    18   ar
    38    29    30   ar
    39    17    18   ar
    40    17    21    1
    41    30    31   ar
    42    30    34    1
    43    31    38    1
    44    44    43   ar
    45    44    52    1
    46    18    25    1
    47    43    47    1
    48     1     6   ar
    49     1     9    1
    50    39    38    1
    51    54    52    1
    52    27    25    1
    53    38    40    1
    54    52    53    1
    55    25    26    1
    56     9    10    3
    57    10    11    1
