@<TRIPOS>MOLECULE
mol_data/opt/m06hf/geoms/mol2/6eh6ei4fd-13le-.out
 55 58 0 0 0
SMALL
GASTEIGER

@<TRIPOS>ATOM
      1 C          -4.1872   -2.3104    0.4743 C.ar    1  LIG1        0.1139
      2 C          -2.9635   -2.3970   -0.1954 C.ar    1  LIG1       -0.0260
      3 C          -2.4955   -1.2893   -0.8795 C.ar    1  LIG1       -0.0363
      4 C          -3.2537   -0.1146   -0.8857 C.ar    1  LIG1        0.0511
      5 C          -4.4682   -0.1303   -0.1693 C.ar    1  LIG1        0.0956
      6 N          -4.9141   -1.1944    0.4809 N.ar    1  LIG1       -0.2365
      7 H          -1.5521   -1.3246   -1.4106 H       1  LIG1        0.0637
      8 H          -2.4042   -3.3215   -0.1719 H       1  LIG1        0.0646
      9 C          -4.7027   -3.4573    1.1950 C.1     1  LIG1       -0.0498
     10 C          -5.1049   -4.4244    1.7821 C.1     1  LIG1       -0.1124
     11 H          -5.4768   -5.2730    2.3074 H       1  LIG1        0.1232
     12 N          -2.8175    1.0308   -1.5326 N.pl3   1  LIG1       -0.3563
     13 H          -2.1376    0.8836   -2.2644 H       1  LIG1        0.1424
     14 H          -3.5426    1.6887   -1.7854 H       1  LIG1        0.1424
     15 C          -6.6242    1.1126   -0.6273 C.ar    1  LIG1        0.1230
     16 C          -5.3165    1.0997   -0.1208 C.ar    1  LIG1        0.0363
     17 C          -4.8437    2.2732    0.4586 C.ar    1  LIG1       -0.0449
     18 C          -5.6395    3.4146    0.5249 C.ar    1  LIG1       -0.0237
     19 C          -6.9192    3.3179   -0.0454 C.ar    1  LIG1        0.0788
     20 N          -7.3947    2.1971   -0.5847 N.ar    1  LIG1       -0.2374
     21 H          -3.8447    2.2861    0.8815 H       1  LIG1        0.0628
     22 C          -7.1884   -0.0692   -1.2484 C.1     1  LIG1       -0.0491
     23 C          -7.6441   -1.0461   -1.7754 C.1     1  LIG1       -0.1124
     24 H          -8.0535   -1.9166   -2.2330 H       1  LIG1        0.1232
     25 C          -5.1321    4.6569    1.2273 C.3     1  LIG1       -0.0377
     26 H          -5.9622    5.2235    1.6494 H       1  LIG1        0.0278
     27 H          -4.6019    5.2967    0.5226 H       1  LIG1        0.0278
     28 H          -4.4566    4.3674    2.0319 H       1  LIG1        0.0278
     29 C          -7.5856    5.7221   -0.5513 C.ar    1  LIG1        0.1267
     30 C          -8.5268    6.7469   -0.5520 C.ar    1  LIG1       -0.0091
     31 C          -7.8908    4.4552   -0.0369 C.ar    1  LIG1        0.0433
     32 C          -9.8146    6.5470   -0.0501 C.ar    1  LIG1        0.0227
     33 H          -8.2730    7.7180   -0.9593 H       1  LIG1        0.0661
     34 C          -9.1802    4.2393    0.4263 C.ar    1  LIG1       -0.0310
     35 C         -10.1280    5.2634    0.4361 C.ar    1  LIG1        0.0618
     36 H          -9.4491    3.2531    0.7821 H       1  LIG1        0.0638
     37 O          -6.3506    5.9090   -1.0768 O.3     1  LIG1       -0.5061
     38 H          -6.2753    6.7922   -1.4552 H       1  LIG1        0.2922
     39 N         -12.4934    4.7182    1.3527 N.1     1  LIG1       -0.1908
     40 C         -11.4396    4.9536    0.9584 C.1     1  LIG1        0.0998
     41 C         -10.7531    7.6797   -0.0689 C.ar    1  LIG1        0.0913
     42 C         -10.4739    9.0279   -0.2125 C.ar    1  LIG1        0.1606
     43 C         -11.7008    9.7476   -0.1746 C.ar    1  LIG1        0.0842
     44 C         -12.6962    8.8016   -0.0185 C.ar    1  LIG1        0.0213
     45 N         -12.1220    7.5821    0.0397 N.ar    1  LIG1       -0.3565
     46 H         -12.6305    6.7186    0.1670 H       1  LIG1        0.1655
     47 H         -13.7620    8.9318    0.0498 H       1  LIG1        0.0820
     48 O          -9.2387    9.5832   -0.3593 O.3     1  LIG1       -0.4918
     49 C          -8.7690   10.2310    0.8266 C.3     1  LIG1        0.0789
     50 H          -7.7972   10.6511    0.5787 H       1  LIG1        0.0660
     51 H          -9.4595   11.0237    1.1151 H       1  LIG1        0.0660
     52 H          -8.6750    9.4995    1.6318 H       1  LIG1        0.0660
     53 C         -11.8548   11.1662   -0.2844 C.1     1  LIG1       -0.0645
     54 C         -11.9676   12.3599   -0.3682 C.1     1  LIG1       -0.1137
     55 H         -12.0736   13.4161   -0.4523 H       1  LIG1        0.1232
@<TRIPOS>BOND
     1    13    12    1
     2    24    23    1
     3    14    12    1
     4    23    22    3
     5    12     4    1
     6    38    37    1
     7     7     3    1
     8    22    15    1
     9    37    29    1
    10    33    30    1
    11     4     3   ar
    12     4     5   ar
    13     3     2   ar
    14    15    20   ar
    15    15    16   ar
    16    20    19   ar
    17    30    29   ar
    18    30    32   ar
    19    29    31   ar
    20    55    54    1
    21    54    53    3
    22    48    42    1
    23    48    49    1
    24    53    43    1
    25    42    43   ar
    26    42    41   ar
    27     2     8    1
    28     2     1   ar
    29    43    44   ar
    30     5    16    1
    31     5     6   ar
    32    16    17   ar
    33    41    32    1
    34    41    45   ar
    35    32    35   ar
    36    19    31    1
    37    19    18   ar
    38    31    34   ar
    39    44    45   ar
    40    44    47    1
    41    45    46    1
    42    34    35   ar
    43    34    36    1
    44    35    40    1
    45    17    18   ar
    46    17    21    1
    47     1     6   ar
    48     1     9    1
    49    27    25    1
    50    18    25    1
    51    50    49    1
    52    49    51    1
    53    49    52    1
    54    40    39    3
    55     9    10    3
    56    25    26    1
    57    25    28    1
    58    10    11    1
