@<TRIPOS>MOLECULE
mol_data/opt/m06hf/geoms/mol2/6eh6eh-.out
 28 29 0 0 0
SMALL
GASTEIGER

@<TRIPOS>ATOM
      1 C          -4.4523   -2.0060    0.4253 C.ar    1  LIG1        0.1139
      2 C          -3.1912   -2.1344   -0.1626 C.ar    1  LIG1       -0.0260
      3 C          -2.6219   -1.0269   -0.7626 C.ar    1  LIG1       -0.0363
      4 C          -3.3019    0.1973   -0.7602 C.ar    1  LIG1        0.0511
      5 C          -4.5543    0.2283   -0.1054 C.ar    1  LIG1        0.0956
      6 N          -5.1070   -0.8467    0.4413 N.ar    1  LIG1       -0.2365
      7 H          -1.6565   -1.0999   -1.2485 H       1  LIG1        0.0637
      8 H          -2.6867   -3.0903   -0.1510 H       1  LIG1        0.0646
      9 C          -5.0899   -3.1531    1.0399 C.1     1  LIG1       -0.0498
     10 C          -5.5947   -4.1215    1.5394 C.1     1  LIG1       -0.1124
     11 H          -6.0538   -4.9714    1.9881 H       1  LIG1        0.1232
     12 N          -2.8008    1.2864   -1.4419 N.pl3   1  LIG1       -0.3563
     13 H          -1.8113    1.2574   -1.6382 H       1  LIG1        0.1424
     14 H          -3.1127    2.1947   -1.1297 H       1  LIG1        0.1424
     15 C          -4.9660    2.6740    0.5058 C.ar    1  LIG1        0.1224
     16 C          -5.3956    1.4661   -0.0609 C.ar    1  LIG1        0.0377
     17 C          -6.6910    1.4005   -0.5621 C.ar    1  LIG1       -0.0277
     18 C          -7.5074    2.5291   -0.5248 C.ar    1  LIG1        0.0436
     19 C          -6.9597    3.6969    0.0394 C.ar    1  LIG1        0.0496
     20 N          -5.7419    3.7628    0.5397 N.ar    1  LIG1       -0.2442
     21 H          -7.0518    0.4621   -0.9655 H       1  LIG1        0.0644
     22 H          -7.5572    4.6010    0.0909 H       1  LIG1        0.0849
     23 C          -3.6558    2.7918    1.1169 C.1     1  LIG1       -0.0491
     24 C          -2.5640    2.8790    1.6126 C.1     1  LIG1       -0.1124
     25 H          -1.6061    2.9603    2.0720 H       1  LIG1        0.1232
     26 N          -8.8122    2.5085   -0.9768 N.pl3   1  LIG1       -0.3568
     27 H          -9.2296    3.3979   -1.2053 H       1  LIG1        0.1424
     28 H          -9.0624    1.7630   -1.6080 H       1  LIG1        0.1424
@<TRIPOS>BOND
     1    13    12    1
     2    28    26    1
     3    12    14    1
     4    12     4    1
     5     7     3    1
     6    27    26    1
     7    26    18    1
     8    21    17    1
     9     3     4   ar
    10     3     2   ar
    11     4     5   ar
    12    17    18   ar
    13    17    16   ar
    14    18    19   ar
    15     2     8    1
    16     2     1   ar
    17     5    16    1
    18     5     6   ar
    19    16    15   ar
    20    19    22    1
    21    19    20   ar
    22     1     6   ar
    23     1     9    1
    24    15    20   ar
    25    15    23    1
    26     9    10    3
    27    23    24    3
    28    10    11    1
    29    24    25    1
