@<TRIPOS>MOLECULE
mol_data/opt/m06hf/geoms/mol2/6eh6da12eh12fe4fh12ei13ae12hi-.out
 93 100 0 0 0
SMALL
GASTEIGER

@<TRIPOS>ATOM
      1 C          -4.9709   -2.3827    0.8540 C.ar    1  LIG1        0.1139
      2 C          -3.6698   -2.6442    0.4132 C.ar    1  LIG1       -0.0260
      3 C          -2.9524   -1.6241   -0.1872 C.ar    1  LIG1       -0.0363
      4 C          -3.5340   -0.3606   -0.3408 C.ar    1  LIG1        0.0511
      5 C          -4.8352   -0.1931    0.1731 C.ar    1  LIG1        0.0956
      6 N          -5.5191   -1.1774    0.7392 N.ar    1  LIG1       -0.2365
      7 H          -1.9484   -1.7997   -0.5537 H       1  LIG1        0.0637
      8 H          -3.2479   -3.6315    0.5353 H       1  LIG1        0.0646
      9 C          -5.7825   -3.4220    1.4530 C.1     1  LIG1       -0.0498
     10 C          -6.4651   -4.2823    1.9402 C.1     1  LIG1       -0.1124
     11 H          -7.0957   -5.0299    2.3657 H       1  LIG1        0.1232
     12 N          -2.8508    0.6887   -0.9416 N.pl3   1  LIG1       -0.3563
     13 H          -2.0473    0.4140   -1.4894 H       1  LIG1        0.1424
     14 H          -3.4347    1.3631   -1.4198 H       1  LIG1        0.1424
     15 C          -6.9067    1.1662   -0.2370 C.ar    1  LIG1        0.1500
     16 C          -5.5505    1.1135    0.1101 C.ar    1  LIG1        0.0381
     17 C          -4.9549    2.3253    0.4707 C.ar    1  LIG1       -0.0477
     18 C          -5.7080    3.4910    0.4912 C.ar    1  LIG1       -0.0319
     19 C          -7.0606    3.4115    0.1443 C.ar    1  LIG1        0.1088
     20 N          -7.6376    2.2683   -0.2252 N.ar    1  LIG1       -0.2325
     21 H          -3.9105    2.3388    0.7574 H       1  LIG1        0.0626
     22 N          -8.2266   -0.9285   -1.0615 N.1     1  LIG1       -0.1893
     23 C          -7.6251   -0.0316   -0.6770 C.1     1  LIG1        0.1198
     24 H          -5.2770    4.4364    0.7901 H       1  LIG1        0.0640
     25 C          -7.9590    4.5745    0.1943 C.ar    1  LIG1        0.1711
     26 C          -7.7838    5.9198    0.4133 C.ar    1  LIG1        0.0933
     27 C          -9.1006    6.5125    0.3839 C.ar    1  LIG1        0.0905
     28 C          -9.9492    5.4681    0.1426 C.ar    1  LIG1        0.1961
     29 O          -9.2540    4.3127    0.0267 O.2     1  LIG1       -0.4469
     30 C          -6.5706    6.6431    0.6327 C.1     1  LIG1       -0.0639
     31 C          -5.5733    7.2897    0.8171 C.1     1  LIG1       -0.1137
     32 H          -4.6936    7.8665    0.9865 H       1  LIG1        0.1232
     33 N          -9.4007    7.8382    0.6370 N.pl3   1  LIG1       -0.3540
     34 H          -8.6565    8.4802    0.4025 H       1  LIG1        0.1425
     35 H         -10.3136    8.1323    0.3083 H       1  LIG1        0.1425
     36 C         -11.3815    5.3497    0.0005 C.ar    1  LIG1        0.2148
     37 C         -12.4070    6.2154   -0.1966 C.ar    1  LIG1        0.1822
     38 C         -13.6134    5.4285   -0.2724 C.ar    1  LIG1        0.1126
     39 C         -13.2153    4.1208   -0.1207 C.ar    1  LIG1        0.1584
     40 O         -11.8829    4.0944    0.0520 O.2     1  LIG1       -0.4465
     41 O         -12.3222    7.5618   -0.3279 O.3     1  LIG1       -0.5023
     42 H         -13.2109    7.9127   -0.4815 H       1  LIG1        0.2923
     43 C         -14.8593    6.0684   -0.5566 C.1     1  LIG1       -0.0622
     44 C         -15.8114    6.7578   -0.8158 C.1     1  LIG1       -0.1137
     45 H         -16.6809    7.3291   -1.0463 H       1  LIG1        0.1232
     46 C         -15.1849    2.5564    0.0761 C.ar    1  LIG1        0.1283
     47 C         -15.6644    1.2590    0.0594 C.ar    1  LIG1       -0.0070
     48 C         -13.8235    2.7849   -0.1499 C.ar    1  LIG1        0.0618
     49 C         -14.8201    0.1621   -0.1646 C.ar    1  LIG1        0.0426
     50 H         -16.7156    1.0808    0.2486 H       1  LIG1        0.0662
     51 C         -12.9854    1.6997   -0.3874 C.ar    1  LIG1       -0.0261
     52 C         -13.4439    0.3803   -0.4091 C.ar    1  LIG1        0.0363
     53 H         -11.9330    1.8866   -0.5588 H       1  LIG1        0.0644
     54 O         -15.9740    3.6365    0.3273 O.3     1  LIG1       -0.5060
     55 H         -16.8925    3.3692    0.4342 H       1  LIG1        0.2922
     56 N         -12.5159   -0.6396   -0.6150 N.pl3   1  LIG1       -0.3574
     57 H         -12.8427   -1.4354   -1.1409 H       1  LIG1        0.1423
     58 H         -11.6026   -0.3190   -0.9056 H       1  LIG1        0.1423
     59 C         -15.3969   -1.1852   -0.0996 C.ar    1  LIG1        0.1532
     60 C         -16.6386   -1.7008    0.1891 C.ar    1  LIG1        0.0740
     61 C         -16.5270   -3.1439    0.1414 C.ar    1  LIG1        0.0128
     62 C         -15.2336   -3.3883   -0.1878 C.ar    1  LIG1        0.1559
     63 O         -14.5648   -2.2187   -0.3358 O.2     1  LIG1       -0.4518
     64 C         -17.8489   -1.0108    0.5174 C.1     1  LIG1       -0.0656
     65 C         -18.8918   -0.4818    0.8004 C.1     1  LIG1       -0.1138
     66 H         -19.8166   -0.0183    1.0549 H       1  LIG1        0.1232
     67 C         -17.6209   -4.1335    0.4317 C.3     1  LIG1       -0.0349
     68 H         -17.1857   -5.0889    0.7246 H       1  LIG1        0.0279
     69 H         -18.2492   -4.2812   -0.4482 H       1  LIG1        0.0279
     70 H         -18.2454   -3.7600    1.2429 H       1  LIG1        0.0279
     71 C         -14.4007   -4.5649   -0.3882 C.ar    1  LIG1        0.0841
     72 C         -14.6670   -5.8631   -0.7510 C.ar    1  LIG1       -0.0172
     73 C         -13.4103   -6.5323   -0.8567 C.ar    1  LIG1        0.0537
     74 C         -12.4177   -5.6045   -0.5472 C.ar    1  LIG1        0.1000
     75 N         -13.0419   -4.4336   -0.2658 N.ar    1  LIG1       -0.3483
     76 H         -12.5598   -3.5887    0.0163 H       1  LIG1        0.1661
     77 H         -15.6309   -6.2897   -0.9694 H       1  LIG1        0.0652
     78 C         -13.2300   -7.8847   -1.2880 C.1     1  LIG1       -0.0674
     79 C         -13.1131   -9.0240   -1.6617 C.1     1  LIG1       -0.1138
     80 H         -13.0251  -10.0276   -2.0071 H       1  LIG1        0.1232
     81 C         -10.9646   -5.6415   -0.5194 C.ar    1  LIG1        0.1728
     82 C         -10.0035   -6.6095   -0.4690 C.ar    1  LIG1        0.0754
     83 C          -8.7339   -5.9125   -0.4800 C.ar    1  LIG1        0.0086
     84 C          -9.0375   -4.5929   -0.5134 C.ar    1  LIG1        0.0974
     85 O         -10.3712   -4.4088   -0.5344 O.2     1  LIG1       -0.4592
     86 H          -8.4284   -3.7035   -0.5246 H       1  LIG1        0.1033
     87 N         -10.1231   -7.9882   -0.3238 N.pl3   1  LIG1       -0.3548
     88 H         -11.0440   -8.3509   -0.5395 H       1  LIG1        0.1424
     89 H          -9.3999   -8.4999   -0.8127 H       1  LIG1        0.1424
     90 C          -7.3820   -6.5747   -0.4635 C.3     1  LIG1       -0.0350
     91 H          -6.5972   -5.8231   -0.3920 H       1  LIG1        0.0279
     92 H          -7.2270   -7.1561   -1.3758 H       1  LIG1        0.0279
     93 H          -7.3034   -7.2503    0.3914 H       1  LIG1        0.0279
@<TRIPOS>BOND
     1    80    79    1
     2    79    78    3
     3    13    12    1
     4    14    12    1
     5    92    90    1
     6    78    73    1
     7    57    56    1
     8    22    23    3
     9    45    44    1
    10    77    72    1
    11    12     4    1
    12    58    56    1
    13    73    72   ar
    14    73    74   ar
    15    44    43    3
    16    89    87    1
    17    72    71   ar
    18    23    15    1
    19    56    52    1
    20    53    51    1
    21    43    38    1
    22     7     3    1
    23    74    81    1
    24    74    75   ar
    25    88    87    1
    26    85    81   ar
    27    85    84   ar
    28    86    84    1
    29    81    82   ar
    30    84    83   ar
    31    42    41    1
    32    83    82   ar
    33    83    90    1
    34    82    87    1
    35    90    91    1
    36    90    93    1
    37    69    67    1
    38    52    51   ar
    39    52    49   ar
    40    71    75   ar
    41    71    62    1
    42    51    48   ar
    43     4     3   ar
    44     4     5   ar
    45    63    62   ar
    46    63    59   ar
    47    41    37    1
    48    38    37   ar
    49    38    39   ar
    50    75    76    1
    51    15    20   ar
    52    15    16   ar
    53    20    19   ar
    54    37    36   ar
    55    62    61   ar
    56     3     2   ar
    57    49    59    1
    58    49    47   ar
    59    48    39    1
    60    48    46   ar
    61    39    40   ar
    62    59    60   ar
    63    36    40   ar
    64    36    28    1
    65    29    28   ar
    66    29    25   ar
    67    47    46   ar
    68    47    50    1
    69    46    54    1
    70    16     5    1
    71    16    17   ar
    72    61    60   ar
    73    61    67    1
    74    28    27   ar
    75    19    25    1
    76    19    18   ar
    77     5     6   ar
    78    60    64    1
    79    25    26   ar
    80    35    33    1
    81    54    55    1
    82    27    26   ar
    83    27    33    1
    84    34    33    1
    85     2     8    1
    86     2     1   ar
    87    26    30    1
    88    67    68    1
    89    67    70    1
    90    17    18   ar
    91    17    21    1
    92    18    24    1
    93    64    65    3
    94    30    31    3
    95     6     1   ar
    96    65    66    1
    97    31    32    1
    98     1     9    1
    99     9    10    3
   100    10    11    1
