@<TRIPOS>MOLECULE
mol_data/opt/m06hf/geoms/mol2/6eh6eh-6eh-6eh-.out
 54 57 0 0 0
SMALL
GASTEIGER

@<TRIPOS>ATOM
      1 C          -3.1655   -1.3747   -1.1366 C.ar    1  LIG1        0.1139
      2 C          -3.0302   -2.2630   -0.0667 C.ar    1  LIG1       -0.0260
      3 C          -3.6742   -1.9742    1.1217 C.ar    1  LIG1       -0.0363
      4 C          -4.4325   -0.8026    1.2402 C.ar    1  LIG1        0.0511
      5 C          -4.4747    0.0453    0.1100 C.ar    1  LIG1        0.0956
      6 N          -3.8777   -0.2542   -1.0365 N.ar    1  LIG1       -0.2365
      7 H          -3.6097   -2.6548    1.9618 H       1  LIG1        0.0637
      8 H          -2.4385   -3.1599   -0.1848 H       1  LIG1        0.0646
      9 C          -2.5238   -1.6597   -2.4042 C.1     1  LIG1       -0.0498
     10 C          -1.9798   -1.9252   -3.4416 C.1     1  LIG1       -0.1124
     11 H          -1.4991   -2.1457   -4.3661 H       1  LIG1        0.1232
     12 N          -5.1652   -0.5484    2.3803 N.pl3   1  LIG1       -0.3563
     13 H          -4.8735   -1.0537    3.2043 H       1  LIG1        0.1424
     14 H          -5.3821    0.4195    2.5699 H       1  LIG1        0.1424
     15 C          -5.0775    2.3674    0.9941 C.ar    1  LIG1        0.1231
     16 C          -5.2778    1.3089    0.0955 C.ar    1  LIG1        0.0378
     17 C          -6.2383    1.4675   -0.8951 C.ar    1  LIG1       -0.0270
     18 C          -6.9924    2.6386   -0.9569 C.ar    1  LIG1        0.0517
     19 C          -6.7333    3.6206    0.0241 C.ar    1  LIG1        0.0957
     20 N          -5.8036    3.4866    0.9513 N.ar    1  LIG1       -0.2358
     21 H          -6.3811    0.6772   -1.6221 H       1  LIG1        0.0644
     22 C          -4.0394    2.3072    2.0053 C.1     1  LIG1       -0.0491
     23 C          -3.1808    2.2389    2.8438 C.1     1  LIG1       -0.1124
     24 H          -2.4098    2.1965    3.5778 H       1  LIG1        0.1232
     25 N          -7.9819    2.8258   -1.9010 N.pl3   1  LIG1       -0.3563
     26 H          -8.2435    3.7858   -2.0803 H       1  LIG1        0.1424
     27 H          -7.9131    2.2559   -2.7311 H       1  LIG1        0.1424
     28 C          -6.9600    6.0875   -0.4552 C.ar    1  LIG1        0.1231
     29 C          -7.5238    4.8916    0.0101 C.ar    1  LIG1        0.0378
     30 C          -8.8426    4.9076    0.4360 C.ar    1  LIG1       -0.0270
     31 C          -9.5791    6.0972    0.4155 C.ar    1  LIG1        0.0517
     32 C          -8.9233    7.2386   -0.1010 C.ar    1  LIG1        0.0957
     33 N          -7.6579    7.2205   -0.4972 N.ar    1  LIG1       -0.2358
     34 H          -9.2961    3.9951    0.8062 H       1  LIG1        0.0644
     35 C          -5.5922    6.1160   -0.9293 C.1     1  LIG1       -0.0491
     36 C          -4.4588    6.1098   -1.3253 C.1     1  LIG1       -0.1124
     37 H          -3.4513    6.1086   -1.6710 H       1  LIG1        0.1232
     38 N         -10.8471    6.1531    0.9514 N.pl3   1  LIG1       -0.3563
     39 H         -11.4581    6.8741    0.5966 H       1  LIG1        0.1424
     40 H         -11.3095    5.2640    1.0712 H       1  LIG1        0.1424
     41 C         -10.7768    8.8243   -0.8592 C.ar    1  LIG1        0.1224
     42 C          -9.5866    8.5791   -0.1612 C.ar    1  LIG1        0.0377
     43 C          -8.9621    9.6495    0.4694 C.ar    1  LIG1       -0.0277
     44 C          -9.5429   10.9154    0.4242 C.ar    1  LIG1        0.0436
     45 C         -10.7556   11.0384   -0.2805 C.ar    1  LIG1        0.0496
     46 N         -11.3429   10.0352   -0.9017 N.ar    1  LIG1       -0.2442
     47 H          -8.0205    9.4833    0.9789 H       1  LIG1        0.0644
     48 H         -11.2457   12.0043   -0.3437 H       1  LIG1        0.0849
     49 C         -11.4429    7.7726   -1.6040 C.1     1  LIG1       -0.0491
     50 C         -11.9967    6.8920   -2.2062 C.1     1  LIG1       -0.1124
     51 H         -12.4897    6.1232   -2.7544 H       1  LIG1        0.1232
     52 N          -8.9491   12.0195    1.0010 N.pl3   1  LIG1       -0.3568
     53 H          -9.5469   12.8055    1.2060 H       1  LIG1        0.1424
     54 H          -8.2440   11.8449    1.7002 H       1  LIG1        0.1424
@<TRIPOS>BOND
     1    11    10    1
     2    10     9    3
     3    51    50    1
     4    27    25    1
     5     9     1    1
     6    50    49    3
     7    26    25    1
     8    25    18    1
     9    37    36    1
    10    21    17    1
    11    49    41    1
    12    36    35    3
    13     1     6   ar
    14     1     2   ar
    15     6     5   ar
    16    18    17   ar
    17    18    19   ar
    18    35    28    1
    19    46    41   ar
    20    46    45   ar
    21    17    16   ar
    22    41    42   ar
    23    33    28   ar
    24    33    32   ar
    25    28    29   ar
    26    48    45    1
    27    45    44   ar
    28     8     2    1
    29    42    32    1
    30    42    43   ar
    31    32    31   ar
    32     2     3   ar
    33    29    19    1
    34    29    30   ar
    35    19    20   ar
    36    16     5    1
    37    16    15   ar
    38     5     4   ar
    39    31    30   ar
    40    31    38    1
    41    44    43   ar
    42    44    52    1
    43    30    34    1
    44    43    47    1
    45    39    38    1
    46    20    15   ar
    47    38    40    1
    48    15    22    1
    49    52    53    1
    50    52    54    1
    51     3     4   ar
    52     3     7    1
    53     4    12    1
    54    22    23    3
    55    12    14    1
    56    12    13    1
    57    23    24    1
