@<TRIPOS>MOLECULE
mol_data/opt/m06hf/geoms/mol2/6eh6eh-6eh6eh-.out
 54 57 0 0 0
SMALL
GASTEIGER

@<TRIPOS>ATOM
      1 C          -4.3776   -2.1574    0.4617 C.ar    1  LIG1        0.1139
      2 C          -3.0895   -2.3051   -0.0586 C.ar    1  LIG1       -0.0260
      3 C          -2.4811   -1.2108   -0.6437 C.ar    1  LIG1       -0.0363
      4 C          -3.1502    0.0186   -0.6962 C.ar    1  LIG1        0.0511
      5 C          -4.4345    0.0700   -0.1066 C.ar    1  LIG1        0.0956
      6 N          -5.0222   -0.9932    0.4273 N.ar    1  LIG1       -0.2365
      7 H          -1.4930   -1.2983   -1.0791 H       1  LIG1        0.0637
      8 H          -2.5955   -3.2651   -0.0066 H       1  LIG1        0.0646
      9 C          -5.0573   -3.2908    1.0564 C.1     1  LIG1       -0.0498
     10 C          -5.5944   -4.2508    1.5384 C.1     1  LIG1       -0.1124
     11 H          -6.0819   -5.0936    1.9698 H       1  LIG1        0.1232
     12 N          -2.6048    1.0896   -1.3724 N.pl3   1  LIG1       -0.3563
     13 H          -1.6090    1.0400   -1.5297 H       1  LIG1        0.1424
     14 H          -2.9094    2.0073   -1.0824 H       1  LIG1        0.1424
     15 C          -4.8764    2.5383    0.4197 C.ar    1  LIG1        0.1231
     16 C          -5.2744    1.3094   -0.1272 C.ar    1  LIG1        0.0378
     17 C          -6.5448    1.2309   -0.6786 C.ar    1  LIG1       -0.0270
     18 C          -7.3851    2.3461   -0.7030 C.ar    1  LIG1        0.0517
     19 C          -6.8811    3.5351   -0.1223 C.ar    1  LIG1        0.0957
     20 N          -5.6674    3.6117    0.3999 N.ar    1  LIG1       -0.2358
     21 H          -6.8772    0.2868   -1.0930 H       1  LIG1        0.0644
     22 C          -3.5881    2.6964    1.0670 C.1     1  LIG1       -0.0491
     23 C          -2.5140    2.8184    1.5921 C.1     1  LIG1       -0.1124
     24 H          -1.5721    2.9314    2.0767 H       1  LIG1        0.1232
     25 N          -8.6037    2.2984   -1.3415 N.pl3   1  LIG1       -0.3563
     26 H          -9.3023    2.9569   -1.0295 H       1  LIG1        0.1424
     27 H          -8.9745    1.3725   -1.4978 H       1  LIG1        0.1424
     28 C          -8.9183    4.9644    0.4671 C.ar    1  LIG1        0.1231
     29 C          -7.6567    4.8156   -0.1274 C.ar    1  LIG1        0.0378
     30 C          -7.0846    5.9331   -0.7164 C.ar    1  LIG1       -0.0270
     31 C          -7.7568    7.1573   -0.7305 C.ar    1  LIG1        0.0517
     32 C          -9.0229    7.1948   -0.0971 C.ar    1  LIG1        0.0957
     33 N          -9.5715    6.1266    0.4594 N.ar    1  LIG1       -0.2358
     34 H          -6.1059    5.8429   -1.1723 H       1  LIG1        0.0644
     35 C          -9.5627    3.8591    1.1492 C.1     1  LIG1       -0.0491
     36 C         -10.0847    2.9271    1.7003 C.1     1  LIG1       -0.1124
     37 H         -10.5459    2.1100    2.2059 H       1  LIG1        0.1232
     38 N          -7.2392    8.2387   -1.4079 N.pl3   1  LIG1       -0.3563
     39 H          -6.2495    8.1949   -1.6015 H       1  LIG1        0.1424
     40 H          -7.5413    9.1518   -1.1012 H       1  LIG1        0.1424
     41 C          -9.4518    9.6449    0.4810 C.ar    1  LIG1        0.1224
     42 C          -9.8687    8.4300   -0.0807 C.ar    1  LIG1        0.0377
     43 C         -11.1536    8.3566   -0.6073 C.ar    1  LIG1       -0.0277
     44 C         -11.9727    9.4839   -0.5982 C.ar    1  LIG1        0.0436
     45 C         -11.4384   10.6581   -0.0354 C.ar    1  LIG1        0.0496
     46 N         -10.2305   10.7319    0.4880 N.ar    1  LIG1       -0.2442
     47 H         -11.5054    7.4142   -1.0091 H       1  LIG1        0.0644
     48 H         -12.0382   11.5619   -0.0045 H       1  LIG1        0.0849
     49 C          -8.1540    9.7691    1.1157 C.1     1  LIG1       -0.0491
     50 C          -7.0707    9.8555    1.6288 C.1     1  LIG1       -0.1124
     51 H          -6.1185    9.9343    2.1002 H       1  LIG1        0.1232
     52 N         -13.2692    9.4561   -1.0754 N.pl3   1  LIG1       -0.3568
     53 H         -13.6790   10.3445   -1.3218 H       1  LIG1        0.1424
     54 H         -13.4983    8.7111   -1.7155 H       1  LIG1        0.1424
@<TRIPOS>BOND
     1    54    52    1
     2    39    38    1
     3    13    12    1
     4    27    25    1
     5    38    40    1
     6    38    31    1
     7    12    14    1
     8    12     4    1
     9    25    26    1
    10    25    18    1
    11    53    52    1
    12    34    30    1
    13    21    17    1
    14     7     3    1
    15    52    44    1
    16    47    43    1
    17    31    30   ar
    18    31    32   ar
    19    30    29   ar
    20    18    17   ar
    21    18    19   ar
    22     4     3   ar
    23     4     5   ar
    24    17    16   ar
    25     3     2   ar
    26    43    44   ar
    27    43    42   ar
    28    44    45   ar
    29    29    19    1
    30    29    28   ar
    31    16     5    1
    32    16    15   ar
    33    19    20   ar
    34     5     6   ar
    35    32    42    1
    36    32    33   ar
    37    42    41   ar
    38     2     8    1
    39     2     1   ar
    40    45    48    1
    41    45    46   ar
    42    20    15   ar
    43    15    22    1
    44     6     1   ar
    45    33    28   ar
    46     1     9    1
    47    28    35    1
    48    41    46   ar
    49    41    49    1
    50     9    10    3
    51    22    23    3
    52    49    50    3
    53    35    36    3
    54    10    11    1
    55    23    24    1
    56    50    51    1
    57    36    37    1
