@<TRIPOS>MOLECULE
mol_data/opt/m06hf/geoms/mol2/6eh6dh-4ia-6ae.out
 51 54 0 0 0
SMALL
GASTEIGER

@<TRIPOS>ATOM
      1 C          -3.9903   -1.8516    1.0262 C.ar    1  LIG1        0.1139
      2 C          -2.9329   -2.1579    0.1627 C.ar    1  LIG1       -0.0260
      3 C          -2.6534   -1.2988   -0.8845 C.ar    1  LIG1       -0.0363
      4 C          -3.4263   -0.1460   -1.0556 C.ar    1  LIG1        0.0511
      5 C          -4.4536    0.0780   -0.1186 C.ar    1  LIG1        0.0957
      6 N          -4.7259   -0.7529    0.8774 N.ar    1  LIG1       -0.2365
      7 H          -1.8475   -1.5147   -1.5754 H       1  LIG1        0.0637
      8 H          -2.3570   -3.0584    0.3215 H       1  LIG1        0.0646
      9 C          -4.3074   -2.7384    2.1265 C.1     1  LIG1       -0.0498
     10 C          -4.5421   -3.4963    3.0273 C.1     1  LIG1       -0.1124
     11 H          -4.7665   -4.1605    3.8294 H       1  LIG1        0.1232
     12 N          -3.1705    0.7583   -2.0786 N.pl3   1  LIG1       -0.3563
     13 H          -2.6394    0.3849   -2.8529 H       1  LIG1        0.1424
     14 H          -3.9687    1.3025   -2.3787 H       1  LIG1        0.1424
     15 C          -6.7010    1.2109   -0.2920 C.ar    1  LIG1        0.1500
     16 C          -5.3088    1.3012   -0.2067 C.ar    1  LIG1        0.0398
     17 C          -4.7457    2.5721   -0.1837 C.ar    1  LIG1       -0.0270
     18 C          -5.5699    3.6993   -0.2176 C.ar    1  LIG1        0.0516
     19 C          -6.9694    3.4864   -0.2585 C.ar    1  LIG1        0.0933
     20 N          -7.4989    2.2751   -0.3184 N.ar    1  LIG1       -0.2338
     21 H          -3.6680    2.6796   -0.1353 H       1  LIG1        0.0644
     22 N          -7.8644   -1.1045   -0.5354 N.1     1  LIG1       -0.1893
     23 C          -7.3514   -0.0873   -0.4053 C.1     1  LIG1        0.1198
     24 N          -5.0577    4.9760   -0.1785 N.pl3   1  LIG1       -0.3563
     25 H          -4.0882    5.0927   -0.4298 H       1  LIG1        0.1424
     26 H          -5.6759    5.7149   -0.4850 H       1  LIG1        0.1424
     27 C          -8.0546    5.4879    0.8295 C.ar    1  LIG1       -0.0406
     28 C          -8.9381    6.5626    0.7390 C.ar    1  LIG1       -0.0504
     29 C          -7.9071    4.6544   -0.2906 C.ar    1  LIG1        0.0051
     30 C          -9.6687    6.8162   -0.4244 C.ar    1  LIG1       -0.0161
     31 H          -9.0896    7.1953    1.6063 H       1  LIG1        0.0626
     32 C          -8.6466    4.8897   -1.4491 C.ar    1  LIG1       -0.0517
     33 C          -9.5218    5.9669   -1.5223 C.ar    1  LIG1       -0.0533
     34 H          -8.5308    4.2193   -2.2914 H       1  LIG1        0.0624
     35 C          -7.3193    5.1961    2.1255 C.3     1  LIG1       -0.0391
     36 H          -7.6538    5.8780    2.9061 H       1  LIG1        0.0278
     37 H          -6.2421    5.3102    1.9886 H       1  LIG1        0.0278
     38 H          -7.5203    4.1716    2.4429 H       1  LIG1        0.0278
     39 H         -10.0740    6.1595   -2.4332 H       1  LIG1        0.0624
     40 C         -11.8892    7.8298   -1.0179 C.ar    1  LIG1        0.0353
     41 C         -10.6039    7.9748   -0.4848 C.ar    1  LIG1        0.0014
     42 C         -10.2405    9.2331   -0.0124 C.ar    1  LIG1       -0.0357
     43 C         -11.1589   10.2795   -0.0957 C.ar    1  LIG1        0.0433
     44 C         -12.4137   10.0202   -0.6578 C.ar    1  LIG1        0.0430
     45 N         -12.7697    8.8226   -1.1063 N.ar    1  LIG1       -0.2614
     46 H          -9.2542    9.4099    0.3968 H       1  LIG1        0.0637
     47 H         -13.1426   10.8167   -0.7405 H       1  LIG1        0.0842
     48 H         -12.2201    6.8591   -1.3697 H       1  LIG1        0.0836
     49 C         -10.8294   11.6041    0.3701 C.1     1  LIG1       -0.0681
     50 C         -10.5561   12.7080    0.7584 C.1     1  LIG1       -0.1139
     51 H         -10.3160   13.6877    1.1029 H       1  LIG1        0.1232
@<TRIPOS>BOND
     1    13    12    1
     2    39    33    1
     3    14    12    1
     4    34    32    1
     5    12     4    1
     6     7     3    1
     7    33    32   ar
     8    33    30   ar
     9    32    29   ar
    10    48    40    1
    11    45    40   ar
    12    45    44   ar
    13     4     3   ar
    14     4     5   ar
    15    40    41   ar
    16     3     2   ar
    17    47    44    1
    18    44    43   ar
    19    22    23    3
    20    26    24    1
    21    41    30    1
    22    41    42   ar
    23    25    24    1
    24    30    28   ar
    25    23    15    1
    26    20    15   ar
    27    20    19   ar
    28    15    16   ar
    29    29    19    1
    30    29    27   ar
    31    19    18   ar
    32    18    17   ar
    33    18    24    1
    34    16    17   ar
    35    16     5    1
    36    17    21    1
    37     5     6   ar
    38    43    42   ar
    39    43    49    1
    40    42    46    1
    41     2     8    1
    42     2     1   ar
    43    49    50    3
    44    28    27   ar
    45    28    31    1
    46    50    51    1
    47    27    35    1
    48     6     1   ar
    49     1     9    1
    50    37    35    1
    51    35    38    1
    52    35    36    1
    53     9    10    3
    54    10    11    1
