@<TRIPOS>MOLECULE
mol_data/opt/m06hf/geoms/mol2/6eh6eh6eh6eh.out
 54 57 0 0 0
SMALL
GASTEIGER

@<TRIPOS>ATOM
      1 C          -2.6560   -1.0233    0.1140 C.ar    1  LIG1        0.1139
      2 C          -3.1068   -2.3423    0.2086 C.ar    1  LIG1       -0.0260
      3 C          -4.4681   -2.5789    0.2353 C.ar    1  LIG1       -0.0363
      4 C          -5.3660   -1.5051    0.1824 C.ar    1  LIG1        0.0511
      5 C          -4.8048   -0.2085    0.1290 C.ar    1  LIG1        0.0956
      6 N          -3.4973    0.0079    0.0726 N.ar    1  LIG1       -0.2365
      7 H          -4.8507   -3.5913    0.2808 H       1  LIG1        0.0637
      8 H          -2.3925   -3.1524    0.2473 H       1  LIG1        0.0646
      9 C          -1.2354   -0.7434    0.0547 C.1     1  LIG1       -0.0498
     10 C          -0.0509   -0.5502    0.0061 C.1     1  LIG1       -0.1124
     11 H           0.9972   -0.3651   -0.0373 H       1  LIG1        0.1232
     12 N          -6.7238   -1.7237    0.1005 N.pl3   1  LIG1       -0.3563
     13 H          -7.0429   -2.6258    0.4205 H       1  LIG1        0.1424
     14 H          -7.3253   -0.9654    0.3869 H       1  LIG1        0.1424
     15 C          -6.6218    1.3590    1.0058 C.ar    1  LIG1        0.1231
     16 C          -5.6602    1.0166    0.0429 C.ar    1  LIG1        0.0378
     17 C          -5.4619    1.8935   -1.0124 C.ar    1  LIG1       -0.0270
     18 C          -6.2327    3.0534   -1.1320 C.ar    1  LIG1        0.0517
     19 C          -7.2285    3.2590   -0.1457 C.ar    1  LIG1        0.0957
     20 N          -7.3780    2.4506    0.8917 N.ar    1  LIG1       -0.2358
     21 H          -4.6824    1.6771   -1.7331 H       1  LIG1        0.0644
     22 C          -6.8154    0.5532    2.1959 C.1     1  LIG1       -0.0491
     23 C          -6.9658   -0.1304    3.1728 C.1     1  LIG1       -0.1124
     24 H          -7.0945   -0.7232    4.0486 H       1  LIG1        0.1232
     25 N          -5.9731    3.9751   -2.1163 N.pl3   1  LIG1       -0.3563
     26 H          -5.4120    3.6535   -2.8902 H       1  LIG1        0.1424
     27 H          -6.7242    4.5929   -2.3857 H       1  LIG1        0.1424
     28 C          -8.9469    4.8134   -1.2226 C.ar    1  LIG1        0.1231
     29 C          -8.1124    4.4656   -0.1498 C.ar    1  LIG1        0.0378
     30 C          -8.1550    5.2600    0.9861 C.ar    1  LIG1       -0.0270
     31 C          -8.9653    6.3972    1.0318 C.ar    1  LIG1        0.0517
     32 C          -9.7051    6.6980   -0.1377 C.ar    1  LIG1        0.0957
     33 N          -9.7094    5.9067   -1.1986 N.ar    1  LIG1       -0.2358
     34 H          -7.5621    4.9734    1.8462 H       1  LIG1        0.0644
     35 C          -9.0450    3.9760   -2.4026 C.1     1  LIG1       -0.0491
     36 C          -9.1084    3.2775   -3.3785 C.1     1  LIG1       -0.1124
     37 H          -9.1778    2.6599   -4.2437 H       1  LIG1        0.1232
     38 N          -9.0868    7.1325    2.1867 N.pl3   1  LIG1       -0.3563
     39 H          -8.3786    6.9734    2.8874 H       1  LIG1        0.1424
     40 H          -9.3520    8.1014    2.0902 H       1  LIG1        0.1424
     41 C         -10.1838    9.2024   -0.0317 C.ar    1  LIG1        0.1224
     42 C         -10.6165    7.8824   -0.2195 C.ar    1  LIG1        0.0377
     43 C         -11.9520    7.6680   -0.5425 C.ar    1  LIG1       -0.0277
     44 C         -12.8247    8.7505   -0.6360 C.ar    1  LIG1        0.0436
     45 C         -12.2864   10.0292   -0.3973 C.ar    1  LIG1        0.0496
     46 N         -11.0172   10.2448   -0.1137 N.ar    1  LIG1       -0.2442
     47 H         -12.2937    6.6568   -0.7281 H       1  LIG1        0.0644
     48 H         -12.9269   10.9030   -0.4577 H       1  LIG1        0.0849
     49 C          -8.7899    9.5040    0.2312 C.1     1  LIG1       -0.0491
     50 C          -7.6321    9.7357    0.4567 C.1     1  LIG1       -0.1124
     51 H          -6.6046    9.9498    0.6404 H       1  LIG1        0.1232
     52 N         -14.1507    8.5985   -0.9900 N.pl3   1  LIG1       -0.3568
     53 H         -14.5473    7.6780   -0.8789 H       1  LIG1        0.1424
     54 H         -14.7771    9.3478   -0.7374 H       1  LIG1        0.1424
@<TRIPOS>BOND
     1    37    36    1
     2    36    35    3
     3    26    25    1
     4    35    28    1
     5    27    25    1
     6    25    18    1
     7    21    17    1
     8    28    33   ar
     9    28    29   ar
    10    33    32   ar
    11    18    17   ar
    12    18    19   ar
    13    17    16   ar
    14    52    53    1
    15    52    54    1
    16    52    44    1
    17    47    43    1
    18    44    43   ar
    19    44    45   ar
    20    43    42   ar
    21    48    45    1
    22    45    46   ar
    23    42    32    1
    24    42    41   ar
    25    29    19    1
    26    29    30   ar
    27    19    20   ar
    28    32    31   ar
    29    46    41   ar
    30    11    10    1
    31    41    49    1
    32    10     9    3
    33    16     5    1
    34    16    15   ar
    35     9     1    1
    36     6     1   ar
    37     6     5   ar
    38    12     4    1
    39    12    14    1
    40    12    13    1
    41     1     2   ar
    42     5     4   ar
    43     4     3   ar
    44     2     3   ar
    45     2     8    1
    46    49    50    3
    47     3     7    1
    48    50    51    1
    49    20    15   ar
    50    30    31   ar
    51    30    34    1
    52    15    22    1
    53    31    38    1
    54    40    38    1
    55    38    39    1
    56    22    23    3
    57    23    24    1
