@<TRIPOS>MOLECULE
mol_data/opt/m06hf/geoms/mol2/6eh6eh.out
 28 29 0 0 0
SMALL
GASTEIGER

@<TRIPOS>ATOM
      1 C          -4.2548   -1.7848    1.0699 C.ar    1  LIG1        0.1139
      2 C          -3.3552   -2.2369    0.1011 C.ar    1  LIG1       -0.0260
      3 C          -3.1180   -1.4449   -1.0066 C.ar    1  LIG1       -0.0363
      4 C          -3.7853   -0.2219   -1.1483 C.ar    1  LIG1        0.0511
      5 C          -4.7030    0.1240   -0.1301 C.ar    1  LIG1        0.0956
      6 N          -4.9018   -0.6279    0.9446 N.ar    1  LIG1       -0.2365
      7 H          -2.4079   -1.7558   -1.7632 H       1  LIG1        0.0637
      8 H          -2.8529   -3.1849    0.2334 H       1  LIG1        0.0646
      9 C          -4.5072   -2.5773    2.2567 C.1     1  LIG1       -0.0498
     10 C          -4.6944   -3.2541    3.2310 C.1     1  LIG1       -0.1124
     11 H          -4.8720   -3.8449    4.0992 H       1  LIG1        0.1232
     12 N          -3.4866    0.6306   -2.1903 N.pl3   1  LIG1       -0.3563
     13 H          -3.0415    0.2015   -2.9879 H       1  LIG1        0.1424
     14 H          -4.2038    1.2925   -2.4497 H       1  LIG1        0.1424
     15 C          -6.3203    1.7977   -1.1826 C.ar    1  LIG1        0.1224
     16 C          -5.4557    1.4183   -0.1467 C.ar    1  LIG1        0.0377
     17 C          -5.3307    2.2670    0.9477 C.ar    1  LIG1       -0.0277
     18 C          -6.0273    3.4735    0.9733 C.ar    1  LIG1        0.0436
     19 C          -6.8426    3.7656   -0.1367 C.ar    1  LIG1        0.0496
     20 N          -6.9872    2.9568   -1.1677 N.ar    1  LIG1       -0.2442
     21 H          -4.6985    1.9683    1.7751 H       1  LIG1        0.0644
     22 H          -7.4045    4.6932   -0.1626 H       1  LIG1        0.0849
     23 C          -6.5591    0.9267   -2.3177 C.1     1  LIG1       -0.0491
     24 C          -6.7420    0.1995   -3.2575 C.1     1  LIG1       -0.1124
     25 H          -6.9260   -0.4466   -4.0844 H       1  LIG1        0.1232
     26 N          -5.9661    4.3356    2.0503 N.pl3   1  LIG1       -0.3568
     27 H          -5.1819    4.2275    2.6749 H       1  LIG1        0.1424
     28 H          -6.2294    5.2948    1.8827 H       1  LIG1        0.1424
@<TRIPOS>BOND
     1    25    24    1
     2    24    23    3
     3    13    12    1
     4    14    12    1
     5    23    15    1
     6    12     4    1
     7     7     3    1
     8    15    20   ar
     9    15    16   ar
    10    20    19   ar
    11     4     3   ar
    12     4     5   ar
    13     3     2   ar
    14    22    19    1
    15    16     5    1
    16    16    17   ar
    17    19    18   ar
    18     5     6   ar
    19     2     8    1
    20     2     1   ar
    21     6     1   ar
    22    17    18   ar
    23    17    21    1
    24    18    26    1
    25     1     9    1
    26    28    26    1
    27    26    27    1
    28     9    10    3
    29    10    11    1
