@<TRIPOS>MOLECULE
mol_data/opt/m06hf/geoms/mol2/6eh6eh6eh-6eh-.out
 54 57 0 0 0
SMALL
GASTEIGER

@<TRIPOS>ATOM
      1 C          -4.1897   -2.1291    0.6150 C.ar    1  LIG1        0.1139
      2 C          -2.9870   -2.2397   -0.0871 C.ar    1  LIG1       -0.0260
      3 C          -2.5413   -1.1542   -0.8174 C.ar    1  LIG1       -0.0363
      4 C          -3.2985    0.0236   -0.8528 C.ar    1  LIG1        0.0511
      5 C          -4.5198    0.0165   -0.1394 C.ar    1  LIG1        0.0956
      6 N          -4.9250   -1.0196    0.5828 N.ar    1  LIG1       -0.2365
      7 H          -1.5996   -1.1989   -1.3509 H       1  LIG1        0.0637
      8 H          -2.4215   -3.1597   -0.0421 H       1  LIG1        0.0646
      9 C          -4.6719   -3.2397    1.4114 C.1     1  LIG1       -0.0498
     10 C          -5.0413   -4.1772    2.0651 C.1     1  LIG1       -0.1124
     11 H          -5.3819   -5.0019    2.6470 H       1  LIG1        0.1232
     12 N          -2.8205    1.1512   -1.4839 N.pl3   1  LIG1       -0.3563
     13 H          -2.1031    0.9947   -2.1761 H       1  LIG1        0.1424
     14 H          -3.5023    1.8396   -1.7673 H       1  LIG1        0.1424
     15 C          -5.9548    1.8397   -1.2105 C.ar    1  LIG1        0.1231
     16 C          -5.4050    1.2214   -0.0774 C.ar    1  LIG1        0.0378
     17 C          -5.7542    1.7257    1.1660 C.ar    1  LIG1       -0.0270
     18 C          -6.5860    2.8431    1.2762 C.ar    1  LIG1        0.0517
     19 C          -7.0218    3.4331    0.0648 C.ar    1  LIG1        0.0957
     20 N          -6.7335    2.9177   -1.1197 N.ar    1  LIG1       -0.2358
     21 H          -5.3894    1.2251    2.0550 H       1  LIG1        0.0644
     22 C          -5.7277    1.3104   -2.5417 C.1     1  LIG1       -0.0491
     23 C          -5.5248    0.8652   -3.6395 C.1     1  LIG1       -0.1124
     24 H          -5.3616    0.4673   -4.6143 H       1  LIG1        0.1232
     25 N          -7.0167    3.2856    2.5043 N.pl3   1  LIG1       -0.3563
     26 H          -6.4958    2.9507    3.3009 H       1  LIG1        0.1424
     27 H          -7.2854    4.2557    2.5749 H       1  LIG1        0.1424
     28 C          -7.6147    5.8555    0.6276 C.ar    1  LIG1        0.1231
     29 C          -7.9292    4.6228    0.0377 C.ar    1  LIG1        0.0378
     30 C          -9.1317    4.5193   -0.6465 C.ar    1  LIG1       -0.0270
     31 C         -10.0009    5.6090   -0.7271 C.ar    1  LIG1        0.0517
     32 C          -9.5794    6.8072   -0.1007 C.ar    1  LIG1        0.0957
     33 N          -8.4373    6.9033    0.5596 N.ar    1  LIG1       -0.2358
     34 H          -9.3870    3.5776   -1.1173 H       1  LIG1        0.0644
     35 C          -6.3538    6.0620    1.3136 C.1     1  LIG1       -0.0491
     36 C          -5.3077    6.2155    1.8848 C.1     1  LIG1       -0.1124
     37 H          -4.3744    6.3677    2.3753 H       1  LIG1        0.1232
     38 N         -11.2384    5.4868   -1.3168 N.pl3   1  LIG1       -0.3563
     39 H         -11.6622    6.3363   -1.6601 H       1  LIG1        0.1424
     40 H         -11.3441    4.7056   -1.9473 H       1  LIG1        0.1424
     41 C         -10.8390    8.6917   -1.2638 C.ar    1  LIG1        0.1224
     42 C         -10.4347    8.0359   -0.0921 C.ar    1  LIG1        0.0377
     43 C         -10.8080    8.5819    1.1305 C.ar    1  LIG1       -0.0277
     44 C         -11.5933    9.7333    1.1629 C.ar    1  LIG1        0.0436
     45 C         -11.9647   10.2899   -0.0750 C.ar    1  LIG1        0.0496
     46 N         -11.5969    9.7924   -1.2396 N.ar    1  LIG1       -0.2442
     47 H         -10.4729    8.1090    2.0457 H       1  LIG1        0.0644
     48 H         -12.5768   11.1855   -0.1003 H       1  LIG1        0.0849
     49 C         -10.4221    8.2123   -2.5673 C.1     1  LIG1       -0.0491
     50 C         -10.0740    7.7914   -3.6376 C.1     1  LIG1       -0.1124
     51 H          -9.7538    7.4317   -4.5881 H       1  LIG1        0.1232
     52 N         -11.9633   10.3402    2.3479 N.pl3   1  LIG1       -0.3568
     53 H         -12.7558   10.9632    2.3078 H       1  LIG1        0.1424
     54 H         -11.9386    9.7663    3.1768 H       1  LIG1        0.1424
@<TRIPOS>BOND
     1    24    23    1
     2    51    50    1
     3    23    22    3
     4    50    49    3
     5    49    41    1
     6    22    15    1
     7    13    12    1
     8    40    38    1
     9    14    12    1
    10    39    38    1
    11    12     4    1
    12     7     3    1
    13    38    31    1
    14    41    46   ar
    15    41    42   ar
    16    46    45   ar
    17    15    20   ar
    18    15    16   ar
    19    20    19   ar
    20    34    30    1
    21     4     3   ar
    22     4     5   ar
    23     3     2   ar
    24    31    30   ar
    25    31    32   ar
    26    30    29   ar
    27     5    16    1
    28     5     6   ar
    29    32    42    1
    30    32    33   ar
    31    48    45    1
    32    42    43   ar
    33     2     8    1
    34     2     1   ar
    35    16    17   ar
    36    45    44   ar
    37    29    19    1
    38    29    28   ar
    39    19    18   ar
    40    33    28   ar
    41     6     1   ar
    42     1     9    1
    43    28    35    1
    44    43    44   ar
    45    43    47    1
    46    44    52    1
    47    17    18   ar
    48    17    21    1
    49    18    25    1
    50    35    36    3
    51     9    10    3
    52    36    37    1
    53    10    11    1
    54    53    52    1
    55    52    54    1
    56    25    27    1
    57    25    26    1
