@<TRIPOS>MOLECULE
mol_data/opt/m06hf/geoms/mol2/6eh6eh-4eh6eh.out
 55 58 0 0 0
SMALL
GASTEIGER

@<TRIPOS>ATOM
      1 C          -3.5745   -1.6818   -1.1374 C.ar    1  LIG1        0.1139
      2 C          -3.0982   -2.3180    0.0117 C.ar    1  LIG1       -0.0260
      3 C          -3.3642   -1.7504    1.2434 C.ar    1  LIG1       -0.0363
      4 C          -4.0890   -0.5544    1.3210 C.ar    1  LIG1        0.0511
      5 C          -4.4923    0.0269    0.0965 C.ar    1  LIG1        0.0956
      6 N          -4.2572   -0.5402   -1.0797 N.ar    1  LIG1       -0.2365
      7 H          -3.0318   -2.2318    2.1550 H       1  LIG1        0.0637
      8 H          -2.5433   -3.2414   -0.0760 H       1  LIG1        0.0646
      9 C          -3.3373   -2.2648   -2.4429 C.1     1  LIG1       -0.0498
     10 C          -3.1259   -2.7773   -3.5083 C.1     1  LIG1       -0.1124
     11 H          -2.9436   -3.2200   -4.4595 H       1  LIG1        0.1232
     12 N          -4.4579   -0.0309    2.5413 N.pl3   1  LIG1       -0.3563
     13 H          -3.9192   -0.3487    3.3333 H       1  LIG1        0.1424
     14 H          -4.6531    0.9593    2.5685 H       1  LIG1        0.1424
     15 C          -4.8838    2.5037    0.5989 C.ar    1  LIG1        0.1231
     16 C          -5.3020    1.2846    0.0462 C.ar    1  LIG1        0.0378
     17 C          -6.5148    1.2626   -0.6297 C.ar    1  LIG1       -0.0270
     18 C          -7.2939    2.4157   -0.7159 C.ar    1  LIG1        0.0516
     19 C          -6.7978    3.5777   -0.0806 C.ar    1  LIG1        0.0942
     20 N          -5.6303    3.6068    0.5376 N.ar    1  LIG1       -0.2359
     21 H          -6.8373    0.3413   -1.0993 H       1  LIG1        0.0644
     22 C          -3.5899    2.6326    1.2429 C.1     1  LIG1       -0.0491
     23 C          -2.5200    2.7260    1.7821 C.1     1  LIG1       -0.1124
     24 H          -1.5664    2.8266    2.2462 H       1  LIG1        0.1232
     25 N          -8.5174    2.4128   -1.3610 N.pl3   1  LIG1       -0.3563
     26 H          -8.8626    3.3201   -1.6446 H       1  LIG1        0.1424
     27 H          -8.6398    1.6915   -2.0567 H       1  LIG1        0.1424
     28 C          -7.0331    6.0307   -0.6199 C.ar    1  LIG1        0.0346
     29 C          -7.8008    7.1965   -0.5853 C.ar    1  LIG1       -0.0361
     30 C          -7.5868    4.8498   -0.1012 C.ar    1  LIG1        0.0193
     31 C          -9.0871    7.2150   -0.0573 C.ar    1  LIG1        0.0067
     32 H          -7.3775    8.1143   -0.9732 H       1  LIG1        0.0637
     33 C          -8.8787    4.8570    0.4116 C.ar    1  LIG1       -0.0300
     34 C          -9.6513    6.0261    0.4455 C.ar    1  LIG1        0.0331
     35 H          -9.2970    3.9337    0.7971 H       1  LIG1        0.0643
     36 C          -5.7167    6.0625   -1.2088 C.1     1  LIG1       -0.0690
     37 C          -4.6337    6.1165   -1.7263 C.1     1  LIG1       -0.1139
     38 H          -3.6666    6.1522   -2.1706 H       1  LIG1        0.1232
     39 N         -10.9567    5.9836    0.9019 N.pl3   1  LIG1       -0.3575
     40 H         -11.3248    6.8535    1.2607 H       1  LIG1        0.1423
     41 H         -11.1786    5.1946    1.4915 H       1  LIG1        0.1423
     42 C         -10.2573    9.1519    1.0927 C.ar    1  LIG1        0.1210
     43 C          -9.8615    8.4921   -0.0818 C.ar    1  LIG1        0.0195
     44 C         -10.1876    9.0797   -1.3002 C.ar    1  LIG1       -0.0291
     45 C         -10.8917   10.2840   -1.3276 C.ar    1  LIG1        0.0436
     46 C         -11.2443   10.8465   -0.0878 C.ar    1  LIG1        0.0496
     47 N         -10.9396   10.3004    1.0739 N.ar    1  LIG1       -0.2443
     48 H          -9.8943    8.5915   -2.2223 H       1  LIG1        0.0643
     49 H         -11.7915   11.7830   -0.0570 H       1  LIG1        0.0849
     50 C          -9.9263    8.6009    2.3921 C.1     1  LIG1       -0.0492
     51 C          -9.6501    8.1159    3.4564 C.1     1  LIG1       -0.1124
     52 H          -9.3933    7.6970    4.4019 H       1  LIG1        0.1232
     53 N         -11.1995   10.9293   -2.5104 N.pl3   1  LIG1       -0.3568
     54 H         -11.2046   10.3637   -3.3455 H       1  LIG1        0.1424
     55 H         -11.9509   11.6019   -2.4730 H       1  LIG1        0.1424
@<TRIPOS>BOND
     1    11    10    1
     2    10     9    3
     3    54    53    1
     4    53    55    1
     5    53    45    1
     6     9     1    1
     7    48    44    1
     8    38    37    1
     9    27    25    1
    10    37    36    3
    11    26    25    1
    12    25    18    1
    13    45    44   ar
    14    45    46   ar
    15    44    43   ar
    16    36    28    1
    17     1     6   ar
    18     1     2   ar
    19    21    17    1
    20     6     5   ar
    21    32    29    1
    22    18    17   ar
    23    18    19   ar
    24    17    16   ar
    25    28    29   ar
    26    28    30   ar
    27    29    31   ar
    28    30    19    1
    29    30    33   ar
    30    46    49    1
    31    46    47   ar
    32    43    31    1
    33    43    42   ar
    34    19    20   ar
    35     8     2    1
    36    31    34   ar
    37     2     3   ar
    38    16     5    1
    39    16    15   ar
    40     5     4   ar
    41    33    34   ar
    42    33    35    1
    43    34    39    1
    44    20    15   ar
    45    15    22    1
    46    39    40    1
    47    39    41    1
    48    47    42   ar
    49    42    50    1
    50    22    23    3
    51     3     4   ar
    52     3     7    1
    53     4    12    1
    54    23    24    1
    55    50    51    3
    56    12    14    1
    57    12    13    1
    58    51    52    1
