@<TRIPOS>MOLECULE
mol_data/opt/m06hf/geoms/mol2/6eh6eh6eh.out
 41 43 0 0 0
SMALL
GASTEIGER

@<TRIPOS>ATOM
      1 C          -3.3711   -1.3888    1.1279 C.ar    1  LIG1        0.1139
      2 C          -3.4393   -2.4203    0.1879 C.ar    1  LIG1       -0.0260
      3 C          -4.2577   -2.2623   -0.9148 C.ar    1  LIG1       -0.0363
      4 C          -5.0111   -1.0913   -1.0632 C.ar    1  LIG1        0.0511
      5 C          -4.8972   -0.1269   -0.0363 C.ar    1  LIG1        0.0956
      6 N          -4.0857   -0.2721    1.0027 N.ar    1  LIG1       -0.2365
      7 H          -4.3115   -3.0310   -1.6761 H       1  LIG1        0.0637
      8 H          -2.8477   -3.3140    0.3277 H       1  LIG1        0.0646
      9 C          -2.5033   -1.5112    2.2819 C.1     1  LIG1       -0.0498
     10 C          -1.7759   -1.6419    3.2290 C.1     1  LIG1       -0.1124
     11 H          -1.1396   -1.7460    4.0770 H       1  LIG1        0.1232
     12 N          -5.7574   -0.8687   -2.2007 N.pl3   1  LIG1       -0.3563
     13 H          -6.0310   -1.6950   -2.7117 H       1  LIG1        0.1424
     14 H          -6.4991   -0.1875   -2.1270 H       1  LIG1        0.1424
     15 C          -7.0377    1.2583   -0.1453 C.ar    1  LIG1        0.1231
     16 C          -5.6378    1.1721   -0.0942 C.ar    1  LIG1        0.0378
     17 C          -4.9188    2.3559   -0.0356 C.ar    1  LIG1       -0.0270
     18 C          -5.5728    3.5904   -0.0742 C.ar    1  LIG1        0.0517
     19 C          -6.9838    3.5594   -0.1916 C.ar    1  LIG1        0.0957
     20 N          -7.6724    2.4293   -0.1950 N.ar    1  LIG1       -0.2358
     21 H          -3.8407    2.3104    0.0625 H       1  LIG1        0.0644
     22 C          -7.8648    0.0673   -0.1110 C.1     1  LIG1       -0.0491
     23 C          -8.5367   -0.9286   -0.0856 C.1     1  LIG1       -0.1124
     24 H          -9.1396   -1.8060   -0.0481 H       1  LIG1        0.1232
     25 N          -4.8758    4.7653    0.0766 N.pl3   1  LIG1       -0.3563
     26 H          -3.8780    4.7082   -0.0598 H       1  LIG1        0.1424
     27 H          -5.2909    5.6004   -0.3092 H       1  LIG1        0.1424
     28 C          -7.6590    5.8197   -1.1668 C.ar    1  LIG1        0.1224
     29 C          -7.8041    4.8110   -0.2050 C.ar    1  LIG1        0.0377
     30 C          -8.7863    4.9647    0.7675 C.ar    1  LIG1       -0.0277
     31 C          -9.5676    6.1184    0.7857 C.ar    1  LIG1        0.0436
     32 C          -9.3130    7.0797   -0.2111 C.ar    1  LIG1        0.0496
     33 N          -8.4013    6.9321   -1.1517 N.ar    1  LIG1       -0.2442
     34 H          -8.9343    4.1762    1.4954 H       1  LIG1        0.0644
     35 H          -9.8948    7.9953   -0.2359 H       1  LIG1        0.0849
     36 C          -6.7041    5.6881   -2.2506 C.1     1  LIG1       -0.0491
     37 C          -5.8994    5.5681   -3.1351 C.1     1  LIG1       -0.1124
     38 H          -5.2010    5.4614   -3.9322 H       1  LIG1        0.1232
     39 N         -10.5797    6.3092    1.7052 N.pl3   1  LIG1       -0.3568
     40 H         -10.5499    5.7417    2.5384 H       1  LIG1        0.1424
     41 H         -10.8743    7.2602    1.8668 H       1  LIG1        0.1424
@<TRIPOS>BOND
     1    38    37    1
     2    37    36    3
     3    13    12    1
     4    36    28    1
     5    12    14    1
     6    12     4    1
     7     7     3    1
     8    28    33   ar
     9    28    29   ar
    10    33    32   ar
    11     4     3   ar
    12     4     5   ar
    13     3     2   ar
    14    27    25    1
    15    35    32    1
    16    32    31   ar
    17    29    19    1
    18    29    30   ar
    19    20    19   ar
    20    20    15   ar
    21    19    18   ar
    22    15    22    1
    23    15    16   ar
    24    22    23    3
    25    16     5    1
    26    16    17   ar
    27    23    24    1
    28    18    17   ar
    29    18    25    1
    30    26    25    1
    31     5     6   ar
    32    17    21    1
    33     2     8    1
    34     2     1   ar
    35    30    31   ar
    36    30    34    1
    37    31    39    1
    38     6     1   ar
    39     1     9    1
    40    39    41    1
    41    39    40    1
    42     9    10    3
    43    10    11    1
