@<TRIPOS>MOLECULE
mol_data/opt/m06hf/geoms/mol2/6eh6eh6eh6eh-.out
 54 57 0 0 0
SMALL
GASTEIGER

@<TRIPOS>ATOM
      1 C          -3.7529   -1.8247    1.1434 C.ar    1  LIG1        0.1139
      2 C          -3.0022   -2.2368    0.0390 C.ar    1  LIG1       -0.0260
      3 C          -3.0599   -1.4930   -1.1267 C.ar    1  LIG1       -0.0363
      4 C          -3.8655   -0.3516   -1.1711 C.ar    1  LIG1        0.0511
      5 C          -4.5741   -0.0194    0.0017 C.ar    1  LIG1        0.0956
      6 N          -4.5198   -0.7352    1.1137 N.ar    1  LIG1       -0.2365
      7 H          -2.4917   -1.7879   -2.0003 H       1  LIG1        0.0637
      8 H          -2.3927   -3.1266    0.1083 H       1  LIG1        0.0646
      9 C          -3.7111   -2.5892    2.3739 C.1     1  LIG1       -0.0498
     10 C          -3.6564   -3.2428    3.3798 C.1     1  LIG1       -0.1124
     11 H          -3.6200   -3.8111    4.2799 H       1  LIG1        0.1232
     12 N          -3.9404    0.4501   -2.2984 N.pl3   1  LIG1       -0.3563
     13 H          -3.6945    0.0019   -3.1687 H       1  LIG1        0.1424
     14 H          -4.7667    1.0299   -2.3625 H       1  LIG1        0.1424
     15 C          -6.8412    1.0930    0.0549 C.ar    1  LIG1        0.1231
     16 C          -5.4438    1.1990    0.0111 C.ar    1  LIG1        0.0378
     17 C          -4.8767    2.4650   -0.0493 C.ar    1  LIG1       -0.0270
     18 C          -5.6970    3.5951   -0.0380 C.ar    1  LIG1        0.0517
     19 C          -7.0880    3.3729    0.0242 C.ar    1  LIG1        0.0957
     20 N          -7.6303    2.1668    0.0606 N.ar    1  LIG1       -0.2358
     21 H          -3.7986    2.5687   -0.1004 H       1  LIG1        0.0644
     22 C          -7.4791   -0.2072    0.0696 C.1     1  LIG1       -0.0491
     23 C          -7.9950   -1.2911    0.0680 C.1     1  LIG1       -0.1124
     24 H          -8.4593   -2.2494    0.0799 H       1  LIG1        0.1232
     25 N          -5.1786    4.8779   -0.0480 N.pl3   1  LIG1       -0.3563
     26 H          -4.2319    4.9671   -0.3863 H       1  LIG1        0.1424
     27 H          -5.8035    5.6003   -0.3796 H       1  LIG1        0.1424
     28 C          -8.8774    4.8096   -1.0349 C.ar    1  LIG1        0.1231
     29 C          -8.0193    4.5434    0.0417 C.ar    1  LIG1        0.0378
     30 C          -8.0512    5.3963    1.1344 C.ar    1  LIG1       -0.0270
     31 C          -8.9313    6.4842    1.1595 C.ar    1  LIG1        0.0517
     32 C          -9.7320    6.6761    0.0102 C.ar    1  LIG1        0.0957
     33 N          -9.7060    5.8518   -1.0279 N.ar    1  LIG1       -0.2358
     34 H          -7.4054    5.2001    1.9831 H       1  LIG1        0.0644
     35 C          -8.8760    3.9636   -2.2107 C.1     1  LIG1       -0.0491
     36 C          -8.8567    3.2600   -3.1832 C.1     1  LIG1       -0.1124
     37 H          -8.8554    2.6322   -4.0434 H       1  LIG1        0.1232
     38 N          -9.0564    7.2653    2.2843 N.pl3   1  LIG1       -0.3563
     39 H          -8.2936    7.2194    2.9428 H       1  LIG1        0.1424
     40 H          -9.4301    8.1946    2.1611 H       1  LIG1        0.1424
     41 C         -10.3904    9.1414    0.0113 C.ar    1  LIG1        0.1224
     42 C         -10.7323    7.7852   -0.0812 C.ar    1  LIG1        0.0377
     43 C         -12.0613    7.4561   -0.3229 C.ar    1  LIG1       -0.0277
     44 C         -13.0144    8.4664   -0.4376 C.ar    1  LIG1        0.0436
     45 C         -12.5633    9.7919   -0.2925 C.ar    1  LIG1        0.0496
     46 N         -11.3019   10.1151   -0.0859 N.ar    1  LIG1       -0.2442
     47 H         -12.3354    6.4134   -0.4274 H       1  LIG1        0.0644
     48 H         -13.2716   10.6112   -0.3587 H       1  LIG1        0.0849
     49 C          -9.0115    9.5566    0.1871 C.1     1  LIG1       -0.0491
     50 C          -7.8673    9.8900    0.3415 C.1     1  LIG1       -0.1124
     51 H          -6.8554   10.1989    0.4655 H       1  LIG1        0.1232
     52 N         -14.3543    8.1940   -0.6341 N.pl3   1  LIG1       -0.3568
     53 H         -14.9172    8.9426   -1.0091 H       1  LIG1        0.1424
     54 H         -14.5773    7.2879   -1.0177 H       1  LIG1        0.1424
@<TRIPOS>BOND
     1    37    36    1
     2    36    35    3
     3    13    12    1
     4    14    12    1
     5    12     4    1
     6    35    28    1
     7     7     3    1
     8     4     3   ar
     9     4     5   ar
    10     3     2   ar
    11    28    33   ar
    12    28    29   ar
    13    33    32   ar
    14    54    52    1
    15    53    52    1
    16    52    44    1
    17    44    43   ar
    18    44    45   ar
    19    47    43    1
    20    26    25    1
    21    27    25    1
    22    48    45    1
    23    43    42   ar
    24    45    46   ar
    25    21    17    1
    26    46    41   ar
    27    42    32    1
    28    42    41   ar
    29    17    18   ar
    30    17    16   ar
    31    25    18    1
    32    18    19   ar
    33     5    16    1
    34     5     6   ar
    35    32    31   ar
    36    16    15   ar
    37    41    49    1
    38    19    29    1
    39    19    20   ar
    40     2     8    1
    41     2     1   ar
    42    29    30   ar
    43    15    20   ar
    44    15    22    1
    45    23    22    3
    46    23    24    1
    47    49    50    3
    48    50    51    1
    49     6     1   ar
    50    30    31   ar
    51    30    34    1
    52     1     9    1
    53    31    38    1
    54    40    38    1
    55    38    39    1
    56     9    10    3
    57    10    11    1
