@<TRIPOS>MOLECULE
mol_data/opt/m06hf/geoms/mol2/6ei4fe-12hh-6hl-.out
 55 58 0 0 0
SMALL
GASTEIGER

@<TRIPOS>ATOM
      1 C          -3.5885   -1.8561   -0.7961 C.ar    1  LIG1        0.1138
      2 C          -2.6348   -2.0055    0.2115 C.ar    1  LIG1       -0.0275
      3 C          -2.5713   -1.0301    1.1957 C.ar    1  LIG1       -0.0542
      4 C          -3.4250    0.0706    1.1542 C.ar    1  LIG1       -0.0243
      5 C          -4.3220    0.1335    0.0740 C.ar    1  LIG1        0.0788
      6 N          -4.4131   -0.8116   -0.8590 N.ar    1  LIG1       -0.2380
      7 H          -1.8641   -1.1255    2.0108 H       1  LIG1        0.0622
      8 H          -1.9869   -2.8701    0.2170 H       1  LIG1        0.0645
      9 C          -3.7121   -2.8673   -1.8296 C.1     1  LIG1       -0.0498
     10 C          -3.7904   -3.7181   -2.6732 C.1     1  LIG1       -0.1124
     11 H          -3.8705   -4.4634   -3.4300 H       1  LIG1        0.1232
     12 C          -3.3922    1.1166    2.2485 C.3     1  LIG1       -0.0377
     13 H          -4.3968    1.4944    2.4424 H       1  LIG1        0.0278
     14 H          -2.7647    1.9537    1.9422 H       1  LIG1        0.0278
     15 H          -2.9948    0.6802    3.1644 H       1  LIG1        0.0278
     16 C          -4.9034    2.5902   -0.1712 C.ar    1  LIG1        0.1268
     17 C          -5.8482    3.6012   -0.3239 C.ar    1  LIG1       -0.0076
     18 C          -5.3047    1.2531   -0.0749 C.ar    1  LIG1        0.0432
     19 C          -7.2086    3.3005   -0.4146 C.ar    1  LIG1        0.0380
     20 H          -5.5345    4.6402   -0.3486 H       1  LIG1        0.0662
     21 C          -6.6596    0.9589   -0.1837 C.ar    1  LIG1       -0.0329
     22 C          -7.6211    1.9572   -0.3507 C.ar    1  LIG1        0.0362
     23 H          -6.9696   -0.0773   -0.1564 H       1  LIG1        0.0638
     24 O          -3.5735    2.8621   -0.1140 O.3     1  LIG1       -0.5061
     25 H          -3.4158    3.8073   -0.2132 H       1  LIG1        0.2922
     26 C          -9.0077    1.5885   -0.5026 C.1     1  LIG1       -0.0689
     27 C         -10.1564    1.2650   -0.6511 C.1     1  LIG1       -0.1139
     28 H         -11.1815    1.0072   -0.7870 H       1  LIG1        0.1232
     29 C          -8.1468    4.4089   -0.6051 C.ar    1  LIG1        0.1594
     30 C          -8.0405    5.5497   -1.3409 C.ar    1  LIG1        0.0926
     31 C          -9.2542    6.2907   -1.1171 C.ar    1  LIG1        0.0927
     32 C         -10.0132    5.5388   -0.2606 C.ar    1  LIG1        0.1615
     33 O          -9.3466    4.4054    0.0390 O.2     1  LIG1       -0.4509
     34 N          -6.9817    5.9864   -2.1482 N.pl3   1  LIG1       -0.3536
     35 H          -6.4157    5.2161   -2.4880 H       1  LIG1        0.1425
     36 H          -7.3161    6.5378   -2.9307 H       1  LIG1        0.1425
     37 N          -9.5853    7.5513   -1.6831 N.pl3   1  LIG1       -0.3536
     38 H          -8.7868    8.1780   -1.6819 H       1  LIG1        0.1425
     39 H          -9.9562    7.4681   -2.6251 H       1  LIG1        0.1425
     40 C         -12.0662    4.7510    1.0015 C.ar    1  LIG1        0.1272
     41 C         -11.3260    5.7657    0.3552 C.ar    1  LIG1        0.0621
     42 C         -11.8647    7.0575    0.3116 C.ar    1  LIG1       -0.0044
     43 C         -13.0951    7.3078    0.8930 C.ar    1  LIG1        0.1389
     44 C         -13.7460    6.2420    1.5198 C.ar    1  LIG1        0.0713
     45 N         -13.2502    5.0204    1.5714 N.ar    1  LIG1       -0.2364
     46 H         -11.2925    7.8256   -0.1921 H       1  LIG1        0.0663
     47 H         -14.7059    6.4174    1.9913 H       1  LIG1        0.0868
     48 N         -11.6761    3.4406    1.0656 N.pl3   1  LIG1       -0.3426
     49 H         -12.2108    2.8843    1.7138 H       1  LIG1        0.1437
     50 H         -10.7162    3.1843    0.8963 H       1  LIG1        0.1437
     51 O         -13.7284    8.5157    0.9114 O.3     1  LIG1       -0.4936
     52 C         -13.0695    9.5857    0.2666 C.3     1  LIG1        0.0789
     53 H         -13.7222   10.4485    0.3712 H       1  LIG1        0.0660
     54 H         -12.1062    9.7913    0.7423 H       1  LIG1        0.0660
     55 H         -12.9128    9.3638   -0.7929 H       1  LIG1        0.0660
@<TRIPOS>BOND
     1    11    10    1
     2    36    34    1
     3    10     9    3
     4    39    37    1
     5    35    34    1
     6    34    30    1
     7     9     1    1
     8    37    38    1
     9    37    31    1
    10    30    31   ar
    11    30    29   ar
    12    31    32   ar
    13     6     1   ar
    14     6     5   ar
    15     1     2   ar
    16    55    52    1
    17    28    27    1
    18    27    26    3
    19    29    19    1
    20    29    33   ar
    21    26    22    1
    22    19    22   ar
    23    19    17   ar
    24    22    21   ar
    25    20    17    1
    26    17    16   ar
    27    32    33   ar
    28    32    41    1
    29    25    24    1
    30    46    42    1
    31    21    23    1
    32    21    18   ar
    33    16    24    1
    34    16    18   ar
    35    18     5    1
    36     5     4   ar
    37     2     8    1
    38     2     3   ar
    39    52    53    1
    40    52    54    1
    41    52    51    1
    42    42    41   ar
    43    42    43   ar
    44    41    40   ar
    45    43    51    1
    46    43    44   ar
    47    50    48    1
    48    40    48    1
    49    40    45   ar
    50    48    49    1
    51     4     3   ar
    52     4    12    1
    53     3     7    1
    54    44    45   ar
    55    44    47    1
    56    14    12    1
    57    12    13    1
    58    12    15    1
