@<TRIPOS>MOLECULE
mol_data/opt/m06hf/geoms/mol2/6ei6ei6ei-6ei-.out
 58 61 0 0 0
SMALL
GASTEIGER

@<TRIPOS>ATOM
      1 C          -3.4819   -1.5286   -1.4927 C.ar    1  LIG1        0.1138
      2 C          -2.9391   -2.1920   -0.3918 C.ar    1  LIG1       -0.0275
      3 C          -3.1907   -1.6752    0.8713 C.ar    1  LIG1       -0.0542
      4 C          -3.9851   -0.5408    1.0206 C.ar    1  LIG1       -0.0243
      5 C          -4.5108    0.0181   -0.1566 C.ar    1  LIG1        0.0779
      6 N          -4.2488   -0.4443   -1.3753 N.ar    1  LIG1       -0.2381
      7 H          -2.7605   -2.1459    1.7471 H       1  LIG1        0.0622
      8 H          -2.3273   -3.0701   -0.5412 H       1  LIG1        0.0645
      9 C          -3.2108   -2.0141   -2.8329 C.1     1  LIG1       -0.0498
     10 C          -2.9674   -2.4429   -3.9275 C.1     1  LIG1       -0.1124
     11 H          -2.7614   -2.8138   -4.9048 H       1  LIG1        0.1232
     12 C          -4.2308    0.0708    2.3850 C.3     1  LIG1       -0.0377
     13 H          -5.2328   -0.1785    2.7362 H       1  LIG1        0.0278
     14 H          -4.1438    1.1568    2.3346 H       1  LIG1        0.0278
     15 H          -3.4979   -0.3100    3.0957 H       1  LIG1        0.0278
     16 C          -6.6369    1.2630    0.4758 C.ar    1  LIG1        0.1230
     17 C          -5.3704    1.2440   -0.1185 C.ar    1  LIG1        0.0347
     18 C          -4.9202    2.4228   -0.7058 C.ar    1  LIG1       -0.0449
     19 C          -5.6998    3.5739   -0.6857 C.ar    1  LIG1       -0.0237
     20 C          -6.9587    3.4672   -0.0685 C.ar    1  LIG1        0.0780
     21 N          -7.4030    2.3545    0.5048 N.ar    1  LIG1       -0.2374
     22 H          -3.9439    2.4328   -1.1765 H       1  LIG1        0.0628
     23 C          -7.2001    0.0609    1.0627 C.1     1  LIG1       -0.0491
     24 C          -7.6622   -0.9428    1.5338 C.1     1  LIG1       -0.1124
     25 H          -8.0851   -1.8319    1.9412 H       1  LIG1        0.1232
     26 C          -5.1890    4.8718   -1.2772 C.3     1  LIG1       -0.0377
     27 H          -5.4987    5.7191   -0.6648 H       1  LIG1        0.0278
     28 H          -5.5922    5.0092   -2.2811 H       1  LIG1        0.0278
     29 H          -4.1010    4.8481   -1.3286 H       1  LIG1        0.0278
     30 C          -8.4399    5.2552   -1.1024 C.ar    1  LIG1        0.1230
     31 C          -7.8834    4.6404    0.0259 C.ar    1  LIG1        0.0347
     32 C          -8.2715    5.1214    1.2720 C.ar    1  LIG1       -0.0449
     33 C          -9.1212    6.2170    1.3835 C.ar    1  LIG1       -0.0237
     34 C          -9.5501    6.8018    0.1790 C.ar    1  LIG1        0.0780
     35 N          -9.2487    6.3110   -1.0192 N.ar    1  LIG1       -0.2374
     36 H          -7.9135    4.6156    2.1614 H       1  LIG1        0.0628
     37 C          -8.1975    4.7240   -2.4310 C.1     1  LIG1       -0.0491
     38 C          -8.0052    4.2614   -3.5225 C.1     1  LIG1       -0.1124
     39 H          -7.8451    3.8488   -4.4917 H       1  LIG1        0.1232
     40 C          -9.5795    6.7047    2.7430 C.3     1  LIG1       -0.0377
     41 H          -9.5693    5.8745    3.4489 H       1  LIG1        0.0278
     42 H         -10.5902    7.1084    2.6832 H       1  LIG1        0.0278
     43 H          -8.9176    7.4923    3.1043 H       1  LIG1        0.0278
     44 C         -10.1106    9.2288    0.7058 C.ar    1  LIG1        0.1223
     45 C         -10.4624    7.9879    0.1567 C.ar    1  LIG1        0.0347
     46 C         -11.7007    7.8859   -0.4702 C.ar    1  LIG1       -0.0455
     47 C         -12.5618    8.9777   -0.4995 C.ar    1  LIG1       -0.0316
     48 C         -12.1147   10.1501    0.1152 C.ar    1  LIG1        0.0319
     49 N         -10.9263   10.2842    0.6900 N.ar    1  LIG1       -0.2458
     50 H         -11.9757    6.9463   -0.9364 H       1  LIG1        0.0628
     51 H         -12.7498   11.0294    0.1298 H       1  LIG1        0.0832
     52 C          -8.7925    9.4394    1.2781 C.1     1  LIG1       -0.0491
     53 C          -7.6947    9.6244    1.7290 C.1     1  LIG1       -0.1124
     54 H          -6.7200    9.8032    2.1200 H       1  LIG1        0.1232
     55 C         -13.9144    8.9066   -1.1778 C.3     1  LIG1       -0.0383
     56 H         -14.4800    8.0516   -0.8065 H       1  LIG1        0.0278
     57 H         -13.7865    8.7942   -2.2554 H       1  LIG1        0.0278
     58 H         -14.4856    9.8145   -0.9869 H       1  LIG1        0.0278
@<TRIPOS>BOND
     1    11    10    1
     2    39    38    1
     3    10     9    3
     4    38    37    3
     5     9     1    1
     6    37    30    1
     7    28    26    1
     8    57    55    1
     9     1     6   ar
    10     1     2   ar
    11     6     5   ar
    12    29    26    1
    13    26    19    1
    14    26    27    1
    15    55    58    1
    16    55    56    1
    17    55    47    1
    18    22    18    1
    19    30    35   ar
    20    30    31   ar
    21    35    34   ar
    22    50    46    1
    23    18    19   ar
    24    18    17   ar
    25    19    20   ar
    26     8     2    1
    27    47    46   ar
    28    47    48   ar
    29    46    45   ar
    30     2     3   ar
    31     5    17    1
    32     5     4   ar
    33    17    16   ar
    34    20    31    1
    35    20    21   ar
    36    31    32   ar
    37    48    51    1
    38    48    49   ar
    39    45    34    1
    40    45    44   ar
    41    34    33   ar
    42    16    21   ar
    43    16    23    1
    44    49    44   ar
    45    44    52    1
    46     3     4   ar
    47     3     7    1
    48     4    12    1
    49    23    24    3
    50    32    33   ar
    51    32    36    1
    52    52    53    3
    53    33    40    1
    54    24    25    1
    55    53    54    1
    56    14    12    1
    57    12    13    1
    58    12    15    1
    59    42    40    1
    60    40    43    1
    61    40    41    1
