@<TRIPOS>MOLECULE
mol_data/opt/m06hf/geoms/mol2/6ei6ei-6ei-6ei-.out
 58 61 0 0 0
SMALL
GASTEIGER

@<TRIPOS>ATOM
      1 C          -4.1115   -2.0557    0.5068 C.ar    1  LIG1        0.1138
      2 C          -2.9892   -2.2356   -0.3038 C.ar    1  LIG1       -0.0275
      3 C          -2.5696   -1.1672   -1.0819 C.ar    1  LIG1       -0.0542
      4 C          -3.2715    0.0371   -1.0636 C.ar    1  LIG1       -0.0243
      5 C          -4.4092    0.0883   -0.2409 C.ar    1  LIG1        0.0779
      6 N          -4.8014   -0.9167    0.5386 N.ar    1  LIG1       -0.2381
      7 H          -1.6833   -1.2583   -1.6985 H       1  LIG1        0.0622
      8 H          -2.4655   -3.1808   -0.2957 H       1  LIG1        0.0645
      9 C          -4.5616   -3.1347    1.3663 C.1     1  LIG1       -0.0498
     10 C          -4.9069   -4.0455    2.0679 C.1     1  LIG1       -0.1124
     11 H          -5.2255   -4.8458    2.6945 H       1  LIG1        0.1232
     12 C          -2.7866    1.2263   -1.8684 C.3     1  LIG1       -0.0377
     13 H          -3.0258    2.1589   -1.3577 H       1  LIG1        0.0278
     14 H          -3.2666    1.2399   -2.8474 H       1  LIG1        0.0278
     15 H          -1.7067    1.1610   -2.0008 H       1  LIG1        0.0278
     16 C          -5.9249    1.8897   -1.2090 C.ar    1  LIG1        0.1230
     17 C          -5.2385    1.3291   -0.1263 C.ar    1  LIG1        0.0347
     18 C          -5.3993    1.9359    1.1165 C.ar    1  LIG1       -0.0449
     19 C          -6.1513    3.0968    1.2527 C.ar    1  LIG1       -0.0237
     20 C          -6.7256    3.6119    0.0764 C.ar    1  LIG1        0.0780
     21 N          -6.6462    3.0066   -1.1034 N.ar    1  LIG1       -0.2374
     22 H          -4.9384    1.4760    1.9830 H       1  LIG1        0.0628
     23 C          -5.9274    1.2392   -2.5065 C.1     1  LIG1       -0.0491
     24 C          -5.9476    0.6879   -3.5736 C.1     1  LIG1       -0.1124
     25 H          -5.9808    0.2001   -4.5202 H       1  LIG1        0.1232
     26 C          -6.3635    3.7339    2.6111 C.3     1  LIG1       -0.0377
     27 H          -6.2170    2.9865    3.3903 H       1  LIG1        0.0278
     28 H          -7.3737    4.1364    2.6893 H       1  LIG1        0.0278
     29 H          -5.6564    4.5508    2.7600 H       1  LIG1        0.0278
     30 C          -7.0298    6.1088    0.4470 C.ar    1  LIG1        0.1230
     31 C          -7.5506    4.8599    0.0910 C.ar    1  LIG1        0.0347
     32 C          -8.8811    4.8130   -0.3156 C.ar    1  LIG1       -0.0449
     33 C          -9.6731    5.9550   -0.2953 C.ar    1  LIG1       -0.0237
     34 C          -9.0581    7.1367    0.1539 C.ar    1  LIG1        0.0780
     35 N          -7.7721    7.2164    0.4766 N.ar    1  LIG1       -0.2374
     36 H          -9.2863    3.8694   -0.6620 H       1  LIG1        0.0628
     37 C          -5.6202    6.2665    0.7565 C.1     1  LIG1       -0.0491
     38 C          -4.4508    6.3990    0.9975 C.1     1  LIG1       -0.1124
     39 H          -3.4148    6.5292    1.2092 H       1  LIG1        0.1232
     40 C         -11.1124    5.9142   -0.7667 C.3     1  LIG1       -0.0377
     41 H         -11.2536    5.0658   -1.4355 H       1  LIG1        0.0278
     42 H         -11.3655    6.8321   -1.2976 H       1  LIG1        0.0278
     43 H         -11.7845    5.8150    0.0866 H       1  LIG1        0.0278
     44 C         -10.8930    8.6195    1.0994 C.ar    1  LIG1        0.1223
     45 C          -9.8106    8.4288    0.2286 C.ar    1  LIG1        0.0347
     46 C          -9.4183    9.5042   -0.5616 C.ar    1  LIG1       -0.0455
     47 C         -10.1180   10.7058   -0.5033 C.ar    1  LIG1       -0.0316
     48 C         -11.1994   10.7639    0.3785 C.ar    1  LIG1        0.0319
     49 N         -11.5749    9.7633    1.1658 N.ar    1  LIG1       -0.2458
     50 H          -8.5618    9.3910   -1.2166 H       1  LIG1        0.0628
     51 H         -11.7853   11.6734    0.4577 H       1  LIG1        0.0832
     52 C         -11.2951    7.5683    2.0168 C.1     1  LIG1       -0.0491
     53 C         -11.6132    6.6990    2.7825 C.1     1  LIG1       -0.1124
     54 H         -11.8980    5.9379    3.4716 H       1  LIG1        0.1232
     55 C          -9.7178   11.8994   -1.3461 C.3     1  LIG1       -0.0383
     56 H          -9.6331   11.6109   -2.3943 H       1  LIG1        0.0278
     57 H          -8.7522   12.2837   -1.0145 H       1  LIG1        0.0278
     58 H         -10.4582   12.6938   -1.2601 H       1  LIG1        0.0278
@<TRIPOS>BOND
     1    25    24    1
     2    24    23    3
     3    14    12    1
     4    23    16    1
     5    56    55    1
     6    15    12    1
     7    12    13    1
     8    12     4    1
     9     7     3    1
    10    41    40    1
    11    55    58    1
    12    55    57    1
    13    55    47    1
    14    42    40    1
    15    50    46    1
    16    16    21   ar
    17    16    17   ar
    18    21    20   ar
    19     3     4   ar
    20     3     2   ar
    21     4     5   ar
    22    40    33    1
    23    40    43    1
    24    36    32    1
    25    46    47   ar
    26    46    45   ar
    27    47    48   ar
    28    32    33   ar
    29    32    31   ar
    30     2     8    1
    31     2     1   ar
    32    33    34   ar
    33     5    17    1
    34     5     6   ar
    35    17    18   ar
    36    20    31    1
    37    20    19   ar
    38    31    30   ar
    39    34    45    1
    40    34    35   ar
    41    45    44   ar
    42    48    51    1
    43    48    49   ar
    44    30    35   ar
    45    30    37    1
    46     1     6   ar
    47     1     9    1
    48    37    38    3
    49    38    39    1
    50    44    49   ar
    51    44    52    1
    52    18    19   ar
    53    18    22    1
    54    19    26    1
    55     9    10    3
    56    52    53    3
    57    10    11    1
    58    26    28    1
    59    26    29    1
    60    26    27    1
    61    53    54    1
