@<TRIPOS>MOLECULE
mol_data/opt/m06hf/geoms/mol2/6ei6ei-.out
 30 31 0 0 0
SMALL
GASTEIGER

@<TRIPOS>ATOM
      1 C          -4.4012   -1.9722    0.7204 C.ar    1  LIG1        0.1138
      2 C          -3.1336   -2.1070    0.1533 C.ar    1  LIG1       -0.0275
      3 C          -2.5893   -1.0083   -0.4960 C.ar    1  LIG1       -0.0542
      4 C          -3.2892    0.1950   -0.5510 C.ar    1  LIG1       -0.0243
      5 C          -4.5409    0.2238    0.0870 C.ar    1  LIG1        0.0779
      6 N          -5.0899   -0.8316    0.6823 N.ar    1  LIG1       -0.2381
      7 H          -1.6200   -1.0852   -0.9739 H       1  LIG1        0.0622
      8 H          -2.6148   -3.0531    0.2116 H       1  LIG1        0.0645
      9 C          -5.0226   -3.1068    1.3779 C.1     1  LIG1       -0.0498
     10 C          -5.5125   -4.0630    1.9135 C.1     1  LIG1       -0.1124
     11 H          -5.9591   -4.9030    2.3932 H       1  LIG1        0.1232
     12 C          -2.7292    1.3891   -1.2969 C.3     1  LIG1       -0.0377
     13 H          -2.2453    2.0748   -0.6003 H       1  LIG1        0.0278
     14 H          -3.5269    1.9282   -1.8083 H       1  LIG1        0.0278
     15 H          -2.0002    1.0528   -2.0337 H       1  LIG1        0.0278
     16 C          -5.0163    2.6477    0.7038 C.ar    1  LIG1        0.1223
     17 C          -5.3958    1.4532    0.0763 C.ar    1  LIG1        0.0347
     18 C          -6.6393    1.4174   -0.5468 C.ar    1  LIG1       -0.0455
     19 C          -7.4441    2.5519   -0.5692 C.ar    1  LIG1       -0.0316
     20 C          -6.9438    3.6922    0.0645 C.ar    1  LIG1        0.0319
     21 N          -5.7754    3.7443    0.6917 N.ar    1  LIG1       -0.2458
     22 H          -6.9690    0.4928   -1.0073 H       1  LIG1        0.0628
     23 H          -7.5273    4.6064    0.0729 H       1  LIG1        0.0832
     24 C          -3.7737    2.7275    1.4505 C.1     1  LIG1       -0.0491
     25 C          -2.7537    2.7858    2.0823 C.1     1  LIG1       -0.1124
     26 H          -1.8563    2.8446    2.6535 H       1  LIG1        0.1232
     27 C          -8.8025    2.5496   -1.2394 C.3     1  LIG1       -0.0383
     28 H          -9.4741    1.8624   -0.7230 H       1  LIG1        0.0278
     29 H          -8.7119    2.2279   -2.2775 H       1  LIG1        0.0278
     30 H          -9.2403    3.5470   -1.2187 H       1  LIG1        0.0278
@<TRIPOS>BOND
     1    29    27    1
     2    15    12    1
     3    14    12    1
     4    12    13    1
     5    12     4    1
     6    27    30    1
     7    27    28    1
     8    27    19    1
     9    22    18    1
    10     7     3    1
    11    19    18   ar
    12    19    20   ar
    13     4     3   ar
    14     4     5   ar
    15    18    17   ar
    16     3     2   ar
    17    20    23    1
    18    20    21   ar
    19    17     5    1
    20    17    16   ar
    21     5     6   ar
    22     2     8    1
    23     2     1   ar
    24     6     1   ar
    25    21    16   ar
    26    16    24    1
    27     1     9    1
    28     9    10    3
    29    24    25    3
    30    10    11    1
    31    25    26    1
