@<TRIPOS>MOLECULE
mol_data/opt/m06hf/geoms/mol2/6ei6ei-6ei-6ei.out
 58 61 0 0 0
SMALL
GASTEIGER

@<TRIPOS>ATOM
      1 C          -3.0875   -1.3751    1.0190 C.ar    1  LIG1        0.1138
      2 C          -3.0704   -2.2990   -0.0265 C.ar    1  LIG1       -0.0275
      3 C          -3.8435   -2.0298   -1.1463 C.ar    1  LIG1       -0.0542
      4 C          -4.5916   -0.8563   -1.2213 C.ar    1  LIG1       -0.0243
      5 C          -4.4963    0.0204   -0.1269 C.ar    1  LIG1        0.0779
      6 N          -3.7884   -0.2431    0.9685 N.ar    1  LIG1       -0.2381
      7 H          -3.8812   -2.7397   -1.9641 H       1  LIG1        0.0622
      8 H          -2.4814   -3.2008    0.0616 H       1  LIG1        0.0645
      9 C          -2.3278   -1.6374    2.2272 C.1     1  LIG1       -0.0498
     10 C          -1.6936   -1.8849    3.2158 C.1     1  LIG1       -0.1124
     11 H          -1.1349   -2.0914    4.0990 H       1  LIG1        0.1232
     12 C          -5.4879   -0.5837   -2.4129 C.3     1  LIG1       -0.0377
     13 H          -4.9755    0.0547   -3.1333 H       1  LIG1        0.0278
     14 H          -6.3999   -0.0778   -2.0954 H       1  LIG1        0.0278
     15 H          -5.7540   -1.5251   -2.8932 H       1  LIG1        0.0278
     16 C          -5.0690    2.3457   -0.9958 C.ar    1  LIG1        0.1230
     17 C          -5.2600    1.3074   -0.0789 C.ar    1  LIG1        0.0347
     18 C          -6.1909    1.5118    0.9379 C.ar    1  LIG1       -0.0449
     19 C          -6.9162    2.6939    1.0119 C.ar    1  LIG1       -0.0237
     20 C          -6.6451    3.6595    0.0255 C.ar    1  LIG1        0.0780
     21 N          -5.7600    3.4874   -0.9476 N.ar    1  LIG1       -0.2374
     22 H          -6.3424    0.7278    1.6707 H       1  LIG1        0.0628
     23 C          -4.0579    2.2510   -2.0330 C.1     1  LIG1       -0.0491
     24 C          -3.2055    2.1869   -2.8769 C.1     1  LIG1       -0.1124
     25 H          -2.4440    2.1444   -3.6208 H       1  LIG1        0.1232
     26 C          -7.9591    2.9151    2.0885 C.3     1  LIG1       -0.0377
     27 H          -8.2221    1.9636    2.5492 H       1  LIG1        0.0278
     28 H          -8.8559    3.3652    1.6610 H       1  LIG1        0.0278
     29 H          -7.5672    3.5868    2.8536 H       1  LIG1        0.0278
     30 C          -7.2265    5.9441    0.9679 C.ar    1  LIG1        0.1230
     31 C          -7.3914    4.9578   -0.0103 C.ar    1  LIG1        0.0347
     32 C          -8.2854    5.2216   -1.0433 C.ar    1  LIG1       -0.0449
     33 C          -8.9911    6.4191   -1.0879 C.ar    1  LIG1       -0.0237
     34 C          -8.7293    7.3399   -0.0582 C.ar    1  LIG1        0.0780
     35 N          -7.8877    7.1017    0.9424 N.ar    1  LIG1       -0.2374
     36 H          -8.4327    4.4731   -1.8133 H       1  LIG1        0.0628
     37 C          -6.2876    5.7488    2.0568 C.1     1  LIG1       -0.0491
     38 C          -5.4968    5.5724    2.9437 C.1     1  LIG1       -0.1124
     39 H          -4.7856    5.4263    3.7239 H       1  LIG1        0.1232
     40 C         -10.0100    6.6811   -2.1784 C.3     1  LIG1       -0.0377
     41 H         -10.3468    5.7344   -2.5998 H       1  LIG1        0.0278
     42 H          -9.5661    7.2870   -2.9687 H       1  LIG1        0.0278
     43 H         -10.8697    7.2175   -1.7765 H       1  LIG1        0.0278
     44 C          -9.2972    9.6501   -0.9630 C.ar    1  LIG1        0.1223
     45 C          -9.4405    8.6554    0.0151 C.ar    1  LIG1        0.0347
     46 C         -10.2521    8.9375    1.1090 C.ar    1  LIG1       -0.0455
     47 C         -10.9245   10.1532    1.1876 C.ar    1  LIG1       -0.0316
     48 C         -10.7308   11.0492    0.1339 C.ar    1  LIG1        0.0319
     49 N          -9.9371   10.8186   -0.9047 N.ar    1  LIG1       -0.2458
     50 H         -10.3462    8.1993    1.8978 H       1  LIG1        0.0628
     51 H         -11.2351   12.0096    0.1399 H       1  LIG1        0.0832
     52 C          -8.3861    9.4625   -2.0773 C.1     1  LIG1       -0.0491
     53 C          -7.6155    9.3067   -2.9857 C.1     1  LIG1       -0.1124
     54 H          -6.9265    9.1786   -3.7885 H       1  LIG1        0.1232
     55 C         -11.8214   10.4902    2.3608 C.3     1  LIG1       -0.0383
     56 H         -12.2341   11.4923    2.2505 H       1  LIG1        0.0278
     57 H         -11.2543   10.4457    3.2913 H       1  LIG1        0.0278
     58 H         -12.6448    9.7775    2.4245 H       1  LIG1        0.0278
@<TRIPOS>BOND
     1    54    53    1
     2    25    24    1
     3    13    12    1
     4    53    52    3
     5    42    40    1
     6    15    12    1
     7    24    23    3
     8    41    40    1
     9    12    14    1
    10    12     4    1
    11    40    43    1
    12    40    33    1
    13    52    44    1
    14    23    16    1
    15     7     3    1
    16    36    32    1
    17     4     3   ar
    18     4     5   ar
    19     3     2   ar
    20    33    32   ar
    21    33    34   ar
    22    32    31   ar
    23    16    21   ar
    24    16    17   ar
    25    44    49   ar
    26    44    45   ar
    27    21    20   ar
    28    49    48   ar
    29     5    17    1
    30     5     6   ar
    31    17    18   ar
    32    34    45    1
    33    34    35   ar
    34     2     8    1
    35     2     1   ar
    36    31    20    1
    37    31    30   ar
    38    45    46   ar
    39    20    19   ar
    40    48    51    1
    41    48    47   ar
    42    18    19   ar
    43    18    22    1
    44    35    30   ar
    45    30    37    1
    46     6     1   ar
    47    19    26    1
    48     1     9    1
    49    46    47   ar
    50    46    50    1
    51    47    55    1
    52    28    26    1
    53    37    38    3
    54    26    27    1
    55    26    29    1
    56     9    10    3
    57    56    55    1
    58    55    58    1
    59    55    57    1
    60    38    39    1
    61    10    11    1
