@<TRIPOS>MOLECULE
mol_data/opt/m06hf/geoms/mol2/6ei6ei6ei.out
 44 46 0 0 0
SMALL
GASTEIGER

@<TRIPOS>ATOM
      1 C          -3.3699   -1.3621   -1.3568 C.ar    1  LIG1        0.1138
      2 C          -3.3405   -2.3409   -0.3630 C.ar    1  LIG1       -0.0275
      3 C          -4.0444   -2.1023    0.8088 C.ar    1  LIG1       -0.0542
      4 C          -4.7750   -0.9262    0.9650 C.ar    1  LIG1       -0.0243
      5 C          -4.7639   -0.0320   -0.1199 C.ar    1  LIG1        0.0779
      6 N          -4.0641   -0.2310   -1.2333 N.ar    1  LIG1       -0.2381
      7 H          -4.0174   -2.8254    1.6152 H       1  LIG1        0.0622
      8 H          -2.7644   -3.2428   -0.5124 H       1  LIG1        0.0645
      9 C          -2.6175   -1.5542   -2.5826 C.1     1  LIG1       -0.0498
     10 C          -1.9836   -1.7400   -3.5851 C.1     1  LIG1       -0.1124
     11 H          -1.4278   -1.8915   -4.4813 H       1  LIG1        0.1232
     12 C          -5.5045   -0.6277    2.2592 C.3     1  LIG1       -0.0377
     13 H          -6.5613   -0.8792    2.1629 H       1  LIG1        0.0278
     14 H          -5.4262    0.4312    2.5070 H       1  LIG1        0.0278
     15 H          -5.0700   -1.2142    3.0685 H       1  LIG1        0.0278
     16 C          -6.8891    1.3570    0.0629 C.ar    1  LIG1        0.1230
     17 C          -5.4983    1.2708   -0.0643 C.ar    1  LIG1        0.0347
     18 C          -4.7941    2.4642   -0.2013 C.ar    1  LIG1       -0.0449
     19 C          -5.4458    3.6898   -0.1353 C.ar    1  LIG1       -0.0237
     20 C          -6.8349    3.6498    0.0823 C.ar    1  LIG1        0.0780
     21 N          -7.5342    2.5222    0.1386 N.ar    1  LIG1       -0.2374
     22 H          -3.7253    2.4205   -0.3774 H       1  LIG1        0.0628
     23 C          -7.7121    0.1613    0.0614 C.1     1  LIG1       -0.0491
     24 C          -8.3891   -0.8308    0.0356 C.1     1  LIG1       -0.1124
     25 H          -8.9976   -1.7048    0.0021 H       1  LIG1        0.1232
     26 C          -4.6909    4.9883   -0.3338 C.3     1  LIG1       -0.0377
     27 H          -4.4743    5.4525    0.6289 H       1  LIG1        0.0278
     28 H          -5.2854    5.6850   -0.9255 H       1  LIG1        0.0278
     29 H          -3.7548    4.7898   -0.8548 H       1  LIG1        0.0278
     30 C          -7.4637    5.8362    1.2178 C.ar    1  LIG1        0.1223
     31 C          -7.6464    4.9032    0.1864 C.ar    1  LIG1        0.0347
     32 C          -8.6510    5.1552   -0.7420 C.ar    1  LIG1       -0.0455
     33 C          -9.4060    6.3214   -0.6568 C.ar    1  LIG1       -0.0316
     34 C          -9.1062    7.1912    0.3939 C.ar    1  LIG1        0.0319
     35 N          -8.1763    6.9588    1.3124 N.ar    1  LIG1       -0.2458
     36 H          -8.8356    4.4292   -1.5259 H       1  LIG1        0.0628
     37 H          -9.6569    8.1194    0.5027 H       1  LIG1        0.0832
     38 C          -6.5014    5.5874    2.2767 C.1     1  LIG1       -0.0491
     39 C          -5.7161    5.3677    3.1589 C.1     1  LIG1       -0.1124
     40 H          -5.0256    5.1816    3.9485 H       1  LIG1        0.1232
     41 C         -10.5068    6.6279   -1.6510 C.3     1  LIG1       -0.0383
     42 H         -10.9368    7.6097   -1.4548 H       1  LIG1        0.0278
     43 H         -11.2966    5.8790   -1.5778 H       1  LIG1        0.0278
     44 H         -10.1131    6.6148   -2.6680 H       1  LIG1        0.0278
@<TRIPOS>BOND
     1    11    10    1
     2    10     9    3
     3    44    41    1
     4     9     1    1
     5    41    43    1
     6    41    42    1
     7    41    33    1
     8    36    32    1
     9     1     6   ar
    10     1     2   ar
    11     6     5   ar
    12    28    26    1
    13    29    26    1
    14    32    33   ar
    15    32    31   ar
    16    33    34   ar
    17     8     2    1
    18    22    18    1
    19     2     3   ar
    20    26    19    1
    21    26    27    1
    22    18    19   ar
    23    18    17   ar
    24    19    20   ar
    25     5    17    1
    26     5     4   ar
    27    17    16   ar
    28    25    24    1
    29    24    23    3
    30    23    16    1
    31    16    21   ar
    32    20    21   ar
    33    20    31    1
    34    31    30   ar
    35    34    37    1
    36    34    35   ar
    37     3     4   ar
    38     3     7    1
    39     4    12    1
    40    30    35   ar
    41    30    38    1
    42    13    12    1
    43    12    14    1
    44    12    15    1
    45    38    39    3
    46    39    40    1
