@<TRIPOS>MOLECULE
mol_data/opt/m06hf/geoms/mol2/6ei6ei6ei-6ei.out
 58 61 0 0 0
SMALL
GASTEIGER

@<TRIPOS>ATOM
      1 C          -3.1102   -1.2703   -1.3961 C.ar    1  LIG1        0.1138
      2 C          -2.9137   -2.1815   -0.3577 C.ar    1  LIG1       -0.0275
      3 C          -3.5637   -1.9482    0.8452 C.ar    1  LIG1       -0.0542
      4 C          -4.4037   -0.8457    0.9908 C.ar    1  LIG1       -0.0243
      5 C          -4.5598   -0.0217   -0.1371 C.ar    1  LIG1        0.0779
      6 N          -3.9134   -0.2132   -1.2843 N.ar    1  LIG1       -0.2381
      7 H          -3.4095   -2.6158    1.6847 H       1  LIG1        0.0622
      8 H          -2.2551   -3.0262   -0.5003 H       1  LIG1        0.0645
      9 C          -2.4161   -1.4517   -2.6573 C.1     1  LIG1       -0.0498
     10 C          -1.8238   -1.6256   -3.6869 C.1     1  LIG1       -0.1124
     11 H          -1.3049   -1.7678   -4.6063 H       1  LIG1        0.1232
     12 C          -5.0683   -0.5481    2.3201 C.3     1  LIG1       -0.0377
     13 H          -6.0847   -0.9431    2.3317 H       1  LIG1        0.0278
     14 H          -5.1176    0.5279    2.4887 H       1  LIG1        0.0278
     15 H          -4.4959   -1.0070    3.1260 H       1  LIG1        0.0278
     16 C          -6.8033    1.1579    0.1189 C.ar    1  LIG1        0.1230
     17 C          -5.4240    1.2007   -0.1070 C.ar    1  LIG1        0.0347
     18 C          -4.8500    2.4490   -0.3411 C.ar    1  LIG1       -0.0449
     19 C          -5.6228    3.6028   -0.3206 C.ar    1  LIG1       -0.0237
     20 C          -6.9968    3.4338   -0.0705 C.ar    1  LIG1        0.0780
     21 N          -7.5640    2.2549    0.1498 N.ar    1  LIG1       -0.2374
     22 H          -3.7856    2.5044   -0.5366 H       1  LIG1        0.0628
     23 C          -7.4950   -0.1074    0.2848 C.1     1  LIG1       -0.0491
     24 C          -8.0747   -1.1534    0.3976 C.1     1  LIG1       -0.1124
     25 H          -8.5995   -2.0764    0.4865 H       1  LIG1        0.1232
     26 C          -5.0069    4.9703   -0.5351 C.3     1  LIG1       -0.0377
     27 H          -5.4099    5.6848    0.1837 H       1  LIG1        0.0278
     28 H          -5.2343    5.3271   -1.5407 H       1  LIG1        0.0278
     29 H          -3.9260    4.9121   -0.4127 H       1  LIG1        0.0278
     30 C          -8.2411    5.3853   -1.1139 C.ar    1  LIG1        0.1230
     31 C          -7.9186    4.6120    0.0064 C.ar    1  LIG1        0.0347
     32 C          -8.4921    4.9724    1.2217 C.ar    1  LIG1       -0.0449
     33 C          -9.3447    6.0674    1.3115 C.ar    1  LIG1       -0.0237
     34 C          -9.6071    6.7577    0.1150 C.ar    1  LIG1        0.0780
     35 N          -9.0605    6.4354   -1.0526 N.ar    1  LIG1       -0.2374
     36 H          -8.2571    4.3906    2.1055 H       1  LIG1        0.0628
     37 C          -7.7035    5.0479   -2.4187 C.1     1  LIG1       -0.0491
     38 C          -7.2571    4.7449   -3.4920 C.1     1  LIG1       -0.1124
     39 H          -6.8751    4.4709   -4.4484 H       1  LIG1        0.1232
     40 C          -9.9205    6.4972    2.6456 C.3     1  LIG1       -0.0377
     41 H          -9.2968    6.1156    3.4535 H       1  LIG1        0.0278
     42 H         -10.9325    6.1079    2.7602 H       1  LIG1        0.0278
     43 H          -9.9615    7.5846    2.7110 H       1  LIG1        0.0278
     44 C         -11.8583    7.9108    0.3991 C.ar    1  LIG1        0.1223
     45 C         -10.4925    7.9647    0.0856 C.ar    1  LIG1        0.0347
     46 C          -9.9669    9.1928   -0.3023 C.ar    1  LIG1       -0.0455
     47 C         -10.7761   10.3245   -0.3281 C.ar    1  LIG1       -0.0316
     48 C         -12.1121   10.1519    0.0404 C.ar    1  LIG1        0.0319
     49 N         -12.6466    8.9862    0.3829 N.ar    1  LIG1       -0.2458
     50 H          -8.9225    9.2508   -0.5882 H       1  LIG1        0.0628
     51 H         -12.7870   11.0012    0.0443 H       1  LIG1        0.0832
     52 C         -12.4935    6.6436    0.7115 C.1     1  LIG1       -0.0491
     53 C         -13.0150    5.5879    0.9501 C.1     1  LIG1       -0.1124
     54 H         -13.4855    4.6534    1.1530 H       1  LIG1        0.1232
     55 C         -10.2350   11.6784   -0.7387 C.3     1  LIG1       -0.0383
     56 H         -11.0256   12.4276   -0.7193 H       1  LIG1        0.0278
     57 H          -9.8252   11.6281   -1.7482 H       1  LIG1        0.0278
     58 H          -9.4404   11.9902   -0.0593 H       1  LIG1        0.0278
@<TRIPOS>BOND
     1    11    10    1
     2    39    38    1
     3    10     9    3
     4    38    37    3
     5     9     1    1
     6    37    30    1
     7    57    55    1
     8    28    26    1
     9     1     6   ar
    10     1     2   ar
    11     6     5   ar
    12    30    35   ar
    13    30    31   ar
    14    35    34   ar
    15    55    56    1
    16    55    47    1
    17    55    58    1
    18    50    46    1
    19    22    18    1
    20    26    29    1
    21    26    19    1
    22    26    27    1
    23     8     2    1
    24     2     3   ar
    25    18    19   ar
    26    18    17   ar
    27    47    46   ar
    28    47    48   ar
    29    19    20   ar
    30    46    45   ar
    31     5    17    1
    32     5     4   ar
    33    17    16   ar
    34    20    31    1
    35    20    21   ar
    36    31    32   ar
    37    48    51    1
    38    48    49   ar
    39    45    34    1
    40    45    44   ar
    41    34    33   ar
    42    16    21   ar
    43    16    23    1
    44    23    24    3
    45    49    44   ar
    46    24    25    1
    47    44    52    1
    48    52    53    3
    49     3     4   ar
    50     3     7    1
    51    53    54    1
    52     4    12    1
    53    32    33   ar
    54    32    36    1
    55    33    40    1
    56    12    13    1
    57    12    14    1
    58    12    15    1
    59    40    43    1
    60    40    42    1
    61    40    41    1
