@<TRIPOS>MOLECULE
mol_data/opt/m06hf/geoms/mol2/6ei6ei.out
 30 31 0 0 0
SMALL
GASTEIGER

@<TRIPOS>ATOM
      1 C          -4.3644   -1.7836   -1.1432 C.ar    1  LIG1        0.1138
      2 C          -3.3730   -2.2287   -0.2681 C.ar    1  LIG1       -0.0275
      3 C          -3.0079   -1.3976    0.7811 C.ar    1  LIG1       -0.0542
      4 C          -3.6386   -0.1679    0.9574 C.ar    1  LIG1       -0.0243
      5 C          -4.6478    0.1587    0.0359 C.ar    1  LIG1        0.0779
      6 N          -4.9834   -0.6125   -0.9948 N.ar    1  LIG1       -0.2381
      7 H          -2.2209   -1.6972    1.4628 H       1  LIG1        0.0622
      8 H          -2.9013   -3.1873   -0.4305 H       1  LIG1        0.0645
      9 C          -4.7513   -2.6059   -2.2745 C.1     1  LIG1       -0.0498
     10 C          -5.0494   -3.3065   -3.2027 C.1     1  LIG1       -0.1124
     11 H          -5.3249   -3.9184   -4.0301 H       1  LIG1        0.1232
     12 C          -3.2184    0.7712    2.0698 C.3     1  LIG1       -0.0377
     13 H          -3.8903    0.6686    2.9229 H       1  LIG1        0.0278
     14 H          -3.2541    1.8062    1.7294 H       1  LIG1        0.0278
     15 H          -2.2018    0.5365    2.3840 H       1  LIG1        0.0278
     16 C          -6.2120    1.8066    1.1845 C.ar    1  LIG1        0.1223
     17 C          -5.3816    1.4620    0.1093 C.ar    1  LIG1        0.0347
     18 C          -5.2761    2.3675   -0.9418 C.ar    1  LIG1       -0.0455
     19 C          -5.9480    3.5845   -0.8876 C.ar    1  LIG1       -0.0316
     20 C          -6.7213    3.8273    0.2504 C.ar    1  LIG1        0.0319
     21 N          -6.8631    2.9688    1.2524 N.ar    1  LIG1       -0.2458
     22 H          -4.6679    2.1061   -1.8006 H       1  LIG1        0.0628
     23 H          -7.2624    4.7623    0.3475 H       1  LIG1        0.0832
     24 C          -6.4402    0.8711    2.2711 C.1     1  LIG1       -0.0491
     25 C          -6.6413    0.0886    3.1601 C.1     1  LIG1       -0.1124
     26 H          -6.8341   -0.6021    3.9479 H       1  LIG1        0.1232
     27 C          -5.8549    4.5946   -2.0125 C.3     1  LIG1       -0.0383
     28 H          -6.3839    5.5096   -1.7489 H       1  LIG1        0.0278
     29 H          -6.2969    4.1849   -2.9218 H       1  LIG1        0.0278
     30 H          -4.8118    4.8389   -2.2165 H       1  LIG1        0.0278
@<TRIPOS>BOND
     1    11    10    1
     2    10     9    3
     3    29    27    1
     4     9     1    1
     5    30    27    1
     6    27    28    1
     7    27    19    1
     8    22    18    1
     9     1     6   ar
    10     1     2   ar
    11     6     5   ar
    12    18    19   ar
    13    18    17   ar
    14    19    20   ar
    15     8     2    1
    16     2     3   ar
    17     5    17    1
    18     5     4   ar
    19    17    16   ar
    20    20    23    1
    21    20    21   ar
    22     3     4   ar
    23     3     7    1
    24     4    12    1
    25    16    21   ar
    26    16    24    1
    27    14    12    1
    28    12    15    1
    29    12    13    1
    30    24    25    3
    31    25    26    1
