@<TRIPOS>MOLECULE
mol_data/opt/m06hf/geoms/mol2/6ei6ei-6ei6ei-.out
 58 61 0 0 0
SMALL
GASTEIGER

@<TRIPOS>ATOM
      1 C          -3.4084   -1.5792    1.1593 C.ar    1  LIG1        0.1138
      2 C          -2.9704   -2.2285    0.0035 C.ar    1  LIG1       -0.0275
      3 C          -3.3447   -1.6994   -1.2224 C.ar    1  LIG1       -0.0542
      4 C          -4.1152   -0.5392   -1.2842 C.ar    1  LIG1       -0.0243
      5 C          -4.4623    0.0501   -0.0569 C.ar    1  LIG1        0.0779
      6 N          -4.1412   -0.4674    1.1266 N.ar    1  LIG1       -0.2381
      7 H          -3.0519   -2.1943   -2.1407 H       1  LIG1        0.0622
      8 H          -2.3750   -3.1266    0.0837 H       1  LIG1        0.0645
      9 C          -3.0726   -2.1211    2.4628 C.1     1  LIG1       -0.0498
     10 C          -2.7806   -2.5961    3.5259 C.1     1  LIG1       -0.1124
     11 H          -2.5276   -3.0055    4.4762 H       1  LIG1        0.1232
     12 C          -4.5743    0.0132   -2.6187 C.3     1  LIG1       -0.0377
     13 H          -3.8634    0.7545   -2.9845 H       1  LIG1        0.0278
     14 H          -5.5482    0.4927   -2.5213 H       1  LIG1        0.0278
     15 H          -4.6490   -0.7980   -3.3428 H       1  LIG1        0.0278
     16 C          -4.8861    2.5152   -0.5290 C.ar    1  LIG1        0.1230
     17 C          -5.2973    1.2906    0.0086 C.ar    1  LIG1        0.0347
     18 C          -6.5145    1.2650    0.6841 C.ar    1  LIG1       -0.0449
     19 C          -7.3188    2.3965    0.7501 C.ar    1  LIG1       -0.0237
     20 C          -6.8355    3.5466    0.1001 C.ar    1  LIG1        0.0780
     21 N          -5.6440    3.6118   -0.4838 N.ar    1  LIG1       -0.2374
     22 H          -6.8182    0.3468    1.1734 H       1  LIG1        0.0628
     23 C          -3.5698    2.6635   -1.1224 C.1     1  LIG1       -0.0491
     24 C          -2.4717    2.7909   -1.5924 C.1     1  LIG1       -0.1124
     25 H          -1.4956    2.9160   -2.0005 H       1  LIG1        0.1232
     26 C          -8.6228    2.3826    1.5218 C.3     1  LIG1       -0.0377
     27 H          -8.5962    1.5879    2.2667 H       1  LIG1        0.0278
     28 H          -9.4607    2.2120    0.8449 H       1  LIG1        0.0278
     29 H          -8.7777    3.3372    2.0251 H       1  LIG1        0.0278
     30 C          -8.8681    4.9458   -0.5120 C.ar    1  LIG1        0.1230
     31 C          -7.6123    4.8251    0.0930 C.ar    1  LIG1        0.0347
     32 C          -7.0604    5.9717    0.6574 C.ar    1  LIG1       -0.0449
     33 C          -7.7687    7.1675    0.6784 C.ar    1  LIG1       -0.0237
     34 C          -9.0526    7.1459    0.1061 C.ar    1  LIG1        0.0780
     35 N          -9.5665    6.0819   -0.5008 N.ar    1  LIG1       -0.2374
     36 H          -6.0596    5.9186    1.0699 H       1  LIG1        0.0628
     37 C          -9.4552    3.8330   -1.2364 C.1     1  LIG1       -0.0491
     38 C          -9.9333    2.9168   -1.8488 C.1     1  LIG1       -0.1124
     39 H         -10.3652    2.1124   -2.3978 H       1  LIG1        0.1232
     40 C          -7.1587    8.4246    1.2639 C.3     1  LIG1       -0.0377
     41 H          -7.5015    8.5659    2.2897 H       1  LIG1        0.0278
     42 H          -7.4524    9.2978    0.6810 H       1  LIG1        0.0278
     43 H          -6.0725    8.3410    1.2567 H       1  LIG1        0.0278
     44 C         -10.4068    8.9712    1.2437 C.ar    1  LIG1        0.1223
     45 C          -9.9149    8.3693    0.0765 C.ar    1  LIG1        0.0347
     46 C         -10.2820    8.9273   -1.1436 C.ar    1  LIG1       -0.0455
     47 C         -11.0767   10.0692   -1.1786 C.ar    1  LIG1       -0.0316
     48 C         -11.4774   10.5969    0.0508 C.ar    1  LIG1        0.0319
     49 N         -11.1673   10.0662    1.2273 N.ar    1  LIG1       -0.2458
     50 H          -9.9426    8.4580   -2.0602 H       1  LIG1        0.0628
     51 H         -12.0906   11.4911    0.0823 H       1  LIG1        0.0832
     52 C         -10.1375    8.3855    2.5447 C.1     1  LIG1       -0.0491
     53 C          -9.9222    7.8876    3.6165 C.1     1  LIG1       -0.1124
     54 H          -9.7445    7.4493    4.5713 H       1  LIG1        0.1232
     55 C         -11.4994   10.7027   -2.4883 C.3     1  LIG1       -0.0383
     56 H         -12.1840   10.0402   -3.0198 H       1  LIG1        0.0278
     57 H         -10.6291   10.8795   -3.1211 H       1  LIG1        0.0278
     58 H         -12.0012   11.6528   -2.3092 H       1  LIG1        0.0278
@<TRIPOS>BOND
     1    15    12    1
     2    57    55    1
     3    56    55    1
     4    13    12    1
     5    12    14    1
     6    12     4    1
     7    55    58    1
     8    55    47    1
     9    39    38    1
    10     7     3    1
    11    50    46    1
    12    25    24    1
    13    38    37    3
    14    24    23    3
    15     4     3   ar
    16     4     5   ar
    17    37    30    1
    18     3     2   ar
    19    47    46   ar
    20    47    48   ar
    21    46    45   ar
    22    23    16    1
    23    16    21   ar
    24    16    17   ar
    25    30    35   ar
    26    30    31   ar
    27    35    34   ar
    28    21    20   ar
    29     5    17    1
    30     5     6   ar
    31     2     8    1
    32     2     1   ar
    33    17    18   ar
    34    48    51    1
    35    48    49   ar
    36    45    34    1
    37    45    44   ar
    38    31    20    1
    39    31    32   ar
    40    20    19   ar
    41    34    33   ar
    42    32    33   ar
    43    32    36    1
    44    33    40    1
    45    42    40    1
    46    18    19   ar
    47    18    22    1
    48    19    26    1
    49    28    26    1
    50     6     1   ar
    51     1     9    1
    52    49    44   ar
    53    44    52    1
    54    43    40    1
    55    40    41    1
    56    26    29    1
    57    26    27    1
    58     9    10    3
    59    52    53    3
    60    10    11    1
    61    53    54    1
