@<TRIPOS>MOLECULE
mol_data/opt/m06hf/geoms/mol2/6ei6ei-6ei.out
 44 46 0 0 0
SMALL
GASTEIGER

@<TRIPOS>ATOM
      1 C          -4.4418   -2.1088   -0.5429 C.ar    1  LIG1        0.1138
      2 C          -3.1047   -2.2030   -0.1553 C.ar    1  LIG1       -0.0275
      3 C          -2.4816   -1.0596    0.3247 C.ar    1  LIG1       -0.0542
      4 C          -3.1775    0.1455    0.3887 C.ar    1  LIG1       -0.0243
      5 C          -4.5067    0.1288   -0.0662 C.ar    1  LIG1        0.0779
      6 N          -5.1274   -0.9666   -0.4944 N.ar    1  LIG1       -0.2381
      7 H          -1.4534   -1.1018    0.6630 H       1  LIG1        0.0622
      8 H          -2.5919   -3.1521   -0.2175 H       1  LIG1        0.0645
      9 C          -5.1413   -3.2880   -1.0174 C.1     1  LIG1       -0.0498
     10 C          -5.6956   -4.2794   -1.4066 C.1     1  LIG1       -0.1124
     11 H          -6.2014   -5.1496   -1.7560 H       1  LIG1        0.1232
     12 C          -2.5317    1.3938    0.9556 C.3     1  LIG1       -0.0377
     13 H          -3.2405    1.9370    1.5814 H       1  LIG1        0.0278
     14 H          -2.2111    2.0523    0.1476 H       1  LIG1        0.0278
     15 H          -1.6659    1.1188    1.5575 H       1  LIG1        0.0278
     16 C          -5.0833    2.4859   -0.8266 C.ar    1  LIG1        0.1230
     17 C          -5.3563    1.3618   -0.0407 C.ar    1  LIG1        0.0347
     18 C          -6.4845    1.4081    0.7740 C.ar    1  LIG1       -0.0449
     19 C          -7.2934    2.5378    0.8102 C.ar    1  LIG1       -0.0237
     20 C          -6.9219    3.6023   -0.0307 C.ar    1  LIG1        0.0780
     21 N          -5.8470    3.5800   -0.8094 N.ar    1  LIG1       -0.2374
     22 H          -6.7209    0.5467    1.3877 H       1  LIG1        0.0628
     23 C          -3.9586    2.4986   -1.7441 C.1     1  LIG1       -0.0491
     24 C          -3.0365    2.4971   -2.5140 C.1     1  LIG1       -0.1124
     25 H          -2.2306    2.4990   -3.2111 H       1  LIG1        0.1232
     26 C          -8.4887    2.6167    1.7373 C.3     1  LIG1       -0.0377
     27 H          -8.4001    1.8603    2.5164 H       1  LIG1        0.0278
     28 H          -9.4093    2.4475    1.1781 H       1  LIG1        0.0278
     29 H          -8.5447    3.6017    2.2018 H       1  LIG1        0.0278
     30 C          -9.0248    4.9423   -0.5324 C.ar    1  LIG1        0.1223
     31 C          -7.7033    4.8794   -0.0665 C.ar    1  LIG1        0.0347
     32 C          -7.1017    6.0677    0.3336 C.ar    1  LIG1       -0.0455
     33 C          -7.8192    7.2598    0.3050 C.ar    1  LIG1       -0.0316
     34 C          -9.1383    7.1905   -0.1471 C.ar    1  LIG1        0.0319
     35 N          -9.7264    6.0756   -0.5638 N.ar    1  LIG1       -0.2458
     36 H          -6.0683    6.0504    0.6610 H       1  LIG1        0.0628
     37 H          -9.7464    8.0881   -0.1853 H       1  LIG1        0.0832
     38 C          -9.6779    3.7568   -1.0564 C.1     1  LIG1       -0.0491
     39 C         -10.2051    2.7742   -1.5037 C.1     1  LIG1       -0.1124
     40 H         -10.6743    1.9095   -1.9136 H       1  LIG1        0.1232
     41 C          -7.1969    8.5717    0.7368 C.3     1  LIG1       -0.0383
     42 H          -7.9158    9.3847    0.6431 H       1  LIG1        0.0278
     43 H          -6.3300    8.7979    0.1145 H       1  LIG1        0.0278
     44 H          -6.8699    8.5118    1.7757 H       1  LIG1        0.0278
@<TRIPOS>BOND
     1    25    24    1
     2    24    23    3
     3    40    39    1
     4    11    10    1
     5    23    16    1
     6    39    38    3
     7    10     9    3
     8    38    30    1
     9     9     1    1
    10    16    21   ar
    11    16    17   ar
    12    21    20   ar
    13    35    30   ar
    14    35    34   ar
    15     1     6   ar
    16     1     2   ar
    17    30    31   ar
    18     6     5   ar
    19     8     2    1
    20    37    34    1
    21     2     3   ar
    22    34    33   ar
    23    31    20    1
    24    31    32   ar
    25     5    17    1
    26     5     4   ar
    27    17    18   ar
    28    20    19   ar
    29    43    41    1
    30    14    12    1
    31    33    32   ar
    32    33    41    1
    33     3     4   ar
    34     3     7    1
    35    32    36    1
    36     4    12    1
    37    42    41    1
    38    41    44    1
    39    18    19   ar
    40    18    22    1
    41    19    26    1
    42    12    15    1
    43    12    13    1
    44    28    26    1
    45    26    29    1
    46    26    27    1
