@<TRIPOS>MOLECULE
mol_data/opt/m06hf/geoms/mol2/6ei6ei6ei6ei.out
 58 61 0 0 0
SMALL
GASTEIGER

@<TRIPOS>ATOM
      1 C          -2.5038   -0.9012   -0.4330 C.ar    1  LIG1        0.1138
      2 C          -2.9583   -2.2186   -0.3493 C.ar    1  LIG1       -0.0275
      3 C          -4.3162   -2.4286   -0.1628 C.ar    1  LIG1       -0.0542
      4 C          -5.1932   -1.3476   -0.0872 C.ar    1  LIG1       -0.0243
      5 C          -4.6273   -0.0692   -0.2259 C.ar    1  LIG1        0.0779
      6 N          -3.3219    0.1480   -0.3681 N.ar    1  LIG1       -0.2381
      7 H          -4.7018   -3.4360   -0.0599 H       1  LIG1        0.0622
      8 H          -2.2539   -3.0358   -0.4106 H       1  LIG1        0.0645
      9 C          -1.0858   -0.6353   -0.5887 C.1     1  LIG1       -0.0498
     10 C           0.0933   -0.4486   -0.7147 C.1     1  LIG1       -0.1124
     11 H           1.1370   -0.2681   -0.8281 H       1  LIG1        0.1232
     12 C          -6.6701   -1.5675    0.1721 C.3     1  LIG1       -0.0377
     13 H          -7.2132   -1.6311   -0.7712 H       1  LIG1        0.0278
     14 H          -7.0855   -0.7423    0.7504 H       1  LIG1        0.0278
     15 H          -6.8087   -2.4950    0.7274 H       1  LIG1        0.0278
     16 C          -6.4822    1.4593   -1.0642 C.ar    1  LIG1        0.1230
     17 C          -5.4629    1.1703   -0.1501 C.ar    1  LIG1        0.0347
     18 C          -5.1919    2.1233    0.8281 C.ar    1  LIG1       -0.0449
     19 C          -5.9589    3.2777    0.9329 C.ar    1  LIG1       -0.0237
     20 C          -7.0091    3.4172    0.0074 C.ar    1  LIG1        0.0780
     21 N          -7.2354    2.5567   -0.9789 N.ar    1  LIG1       -0.2374
     22 H          -4.3581    1.9559    1.4999 H       1  LIG1        0.0628
     23 C          -6.7339    0.5892   -2.1984 C.1     1  LIG1       -0.0491
     24 C          -6.9260   -0.1194   -3.1491 C.1     1  LIG1       -0.1124
     25 H          -7.0957   -0.7358   -4.0013 H       1  LIG1        0.1232
     26 C          -5.6377    4.3360    1.9687 C.3     1  LIG1       -0.0377
     27 H          -6.2729    4.2108    2.8463 H       1  LIG1        0.0278
     28 H          -5.8092    5.3324    1.5608 H       1  LIG1        0.0278
     29 H          -4.5933    4.2484    2.2665 H       1  LIG1        0.0278
     30 C          -8.7485    4.9155    1.1002 C.ar    1  LIG1        0.1230
     31 C          -7.9102    4.6114    0.0219 C.ar    1  LIG1        0.0347
     32 C          -7.9769    5.4399   -1.0946 C.ar    1  LIG1       -0.0449
     33 C          -8.7935    6.5647   -1.0998 C.ar    1  LIG1       -0.0237
     34 C          -9.5322    6.8086    0.0712 C.ar    1  LIG1        0.0780
     35 N          -9.5371    5.9908    1.1180 N.ar    1  LIG1       -0.2374
     36 H          -7.3885    5.1841   -1.9681 H       1  LIG1        0.0628
     37 C          -8.8364    4.0300    2.2473 C.1     1  LIG1       -0.0491
     38 C          -8.9204    3.2889    3.1890 C.1     1  LIG1       -0.1124
     39 H          -9.0059    2.6371    4.0274 H       1  LIG1        0.1232
     40 C          -8.8919    7.4508   -2.3247 C.3     1  LIG1       -0.0377
     41 H          -8.2325    8.3132   -2.2186 H       1  LIG1        0.0278
     42 H          -9.9122    7.8130   -2.4520 H       1  LIG1        0.0278
     43 H          -8.6025    6.8843   -3.2092 H       1  LIG1        0.0278
     44 C          -9.9624    9.3114    0.1735 C.ar    1  LIG1        0.1223
     45 C         -10.4400    7.9931    0.1894 C.ar    1  LIG1        0.0347
     46 C         -11.8077    7.8022    0.3558 C.ar    1  LIG1       -0.0455
     47 C         -12.6587    8.8986    0.4583 C.ar    1  LIG1       -0.0316
     48 C         -12.0690   10.1630    0.3951 C.ar    1  LIG1        0.0319
     49 N         -10.7644   10.3723    0.2684 N.ar    1  LIG1       -0.2458
     50 H         -12.1954    6.7910    0.4067 H       1  LIG1        0.0628
     51 H         -12.6864   11.0524    0.4609 H       1  LIG1        0.0832
     52 C          -8.5372    9.5782    0.0958 C.1     1  LIG1       -0.0491
     53 C          -7.3560    9.7910    0.0455 C.1     1  LIG1       -0.1124
     54 H          -6.3100    9.9907    0.0100 H       1  LIG1        0.1232
     55 C         -14.1528    8.7295    0.6438 C.3     1  LIG1       -0.0383
     56 H         -14.6587    9.6913    0.5691 H       1  LIG1        0.0278
     57 H         -14.3610    8.2999    1.6248 H       1  LIG1        0.0278
     58 H         -14.5553    8.0613   -0.1182 H       1  LIG1        0.0278
@<TRIPOS>BOND
     1    25    24    1
     2    43    40    1
     3    24    23    3
     4    42    40    1
     5    40    41    1
     6    40    33    1
     7    23    16    1
     8    36    32    1
     9    33    32   ar
    10    33    34   ar
    11    32    31   ar
    12    16    21   ar
    13    16    17   ar
    14    21    20   ar
    15    11    10    1
    16    13    12    1
    17    10     9    3
    18     9     1    1
    19     1     6   ar
    20     1     2   ar
    21     8     2    1
    22     6     5   ar
    23     2     3   ar
    24     5    17    1
    25     5     4   ar
    26     3     4   ar
    27     3     7    1
    28    17    18   ar
    29    58    55    1
    30     4    12    1
    31    20    31    1
    32    20    19   ar
    33    54    53    1
    34    31    30   ar
    35    53    52    3
    36    34    45    1
    37    34    35   ar
    38    52    44    1
    39    12    15    1
    40    12    14    1
    41    44    45   ar
    42    44    49   ar
    43    45    46   ar
    44    49    48   ar
    45    46    50    1
    46    46    47   ar
    47    48    47   ar
    48    48    51    1
    49    47    55    1
    50    56    55    1
    51    55    57    1
    52    18    19   ar
    53    18    22    1
    54    19    26    1
    55    30    35   ar
    56    30    37    1
    57    28    26    1
    58    26    29    1
    59    26    27    1
    60    37    38    3
    61    38    39    1
