@<TRIPOS>MOLECULE
mol_data/opt/m06hf/geoms/mol2/6ei6ei-4ei6ei.out
 59 62 0 0 0
SMALL
GASTEIGER

@<TRIPOS>ATOM
      1 C          -4.4358   -2.2093    0.4446 C.ar    1  LIG1        0.1138
      2 C          -3.1974   -2.3800   -0.1752 C.ar    1  LIG1       -0.0275
      3 C          -2.6160   -1.2774   -0.7845 C.ar    1  LIG1       -0.0542
      4 C          -3.2716   -0.0480   -0.7890 C.ar    1  LIG1       -0.0243
      5 C          -4.5307   -0.0047   -0.1661 C.ar    1  LIG1        0.0779
      6 N          -5.0839   -1.0448    0.4516 N.ar    1  LIG1       -0.2381
      7 H          -1.6414   -1.3649   -1.2497 H       1  LIG1        0.0622
      8 H          -2.7140   -3.3463   -0.1547 H       1  LIG1        0.0645
      9 C          -5.0638   -3.3284    1.1223 C.1     1  LIG1       -0.0498
     10 C          -5.5563   -4.2743    1.6734 C.1     1  LIG1       -0.1124
     11 H          -6.0053   -5.1067    2.1639 H       1  LIG1        0.1232
     12 C          -2.6276    1.1762   -1.4078 C.3     1  LIG1       -0.0377
     13 H          -2.8426    2.0642   -0.8128 H       1  LIG1        0.0278
     14 H          -3.0151    1.3368   -2.4144 H       1  LIG1        0.0278
     15 H          -1.5480    1.0362   -1.4589 H       1  LIG1        0.0278
     16 C          -5.8087    1.9256   -1.2249 C.ar    1  LIG1        0.1230
     17 C          -5.3203    1.2647   -0.0926 C.ar    1  LIG1        0.0347
     18 C          -5.6427    1.8040    1.1499 C.ar    1  LIG1       -0.0449
     19 C          -6.3585    2.9909    1.2482 C.ar    1  LIG1       -0.0237
     20 C          -6.7269    3.6059    0.0378 C.ar    1  LIG1        0.0765
     21 N          -6.4918    3.0692   -1.1540 N.ar    1  LIG1       -0.2375
     22 H          -5.3379    1.2716    2.0438 H       1  LIG1        0.0628
     23 C          -5.6354    1.3558   -2.5491 C.1     1  LIG1       -0.0491
     24 C          -5.5033    0.8679   -3.6387 C.1     1  LIG1       -0.1124
     25 H          -5.3993    0.4370   -4.6074 H       1  LIG1        0.1232
     26 C          -6.7488    3.5573    2.5983 C.3     1  LIG1       -0.0377
     27 H          -6.7294    2.7647    3.3457 H       1  LIG1        0.0278
     28 H          -7.7522    3.9817    2.5541 H       1  LIG1        0.0278
     29 H          -6.0541    4.3449    2.8922 H       1  LIG1        0.0278
     30 C          -6.9452    6.0844    0.5196 C.ar    1  LIG1        0.0344
     31 C          -7.7085    7.2557    0.4864 C.ar    1  LIG1       -0.0376
     32 C          -7.4907    4.8952    0.0206 C.ar    1  LIG1        0.0163
     33 C          -8.9936    7.2523   -0.0434 C.ar    1  LIG1       -0.0111
     34 H          -7.2813    8.1766    0.8617 H       1  LIG1        0.0636
     35 C          -8.7740    4.9102   -0.5226 C.ar    1  LIG1       -0.0479
     36 C          -9.5458    6.0689   -0.5613 C.ar    1  LIG1       -0.0420
     37 H          -9.1712    3.9854   -0.9235 H       1  LIG1        0.0627
     38 C          -5.5939    6.1391    1.0293 C.1     1  LIG1       -0.0690
     39 C          -4.4702    6.2118    1.4507 C.1     1  LIG1       -0.1139
     40 H          -3.4711    6.2753    1.8147 H       1  LIG1        0.1232
     41 C         -10.9447    6.0481   -1.1455 C.3     1  LIG1       -0.0391
     42 H         -11.2621    5.0211   -1.3202 H       1  LIG1        0.0278
     43 H         -10.9583    6.5898   -2.0930 H       1  LIG1        0.0278
     44 H         -11.6496    6.5287   -0.4652 H       1  LIG1        0.0278
     45 C         -10.0010    9.2648   -1.2095 C.ar    1  LIG1        0.1208
     46 C          -9.7762    8.5270   -0.0353 C.ar    1  LIG1        0.0165
     47 C         -10.2945    9.0371    1.1509 C.ar    1  LIG1       -0.0470
     48 C         -11.0149   10.2298    1.1487 C.ar    1  LIG1       -0.0317
     49 C         -11.1795   10.8638   -0.0832 C.ar    1  LIG1        0.0319
     50 N         -10.6889   10.4053   -1.2296 N.ar    1  LIG1       -0.2458
     51 H         -10.1345    8.4929    2.0755 H       1  LIG1        0.0628
     52 H         -11.7364   11.7925   -0.1451 H       1  LIG1        0.0832
     53 C          -9.4596    8.7954   -2.4711 C.1     1  LIG1       -0.0492
     54 C          -9.0034    8.3847   -3.5033 C.1     1  LIG1       -0.1124
     55 H          -8.5936    8.0276   -4.4197 H       1  LIG1        0.1232
     56 C         -11.5867   10.8149    2.4241 C.3     1  LIG1       -0.0383
     57 H         -12.2123   11.6782    2.2009 H       1  LIG1        0.0278
     58 H         -10.7804   11.1307    3.0878 H       1  LIG1        0.0278
     59 H         -12.1904   10.0703    2.9442 H       1  LIG1        0.0278
@<TRIPOS>BOND
     1    25    24    1
     2    55    54    1
     3    24    23    3
     4    54    53    3
     5    23    16    1
     6    53    45    1
     7    14    12    1
     8    43    41    1
     9    15    12    1
    10    12    13    1
    11    12     4    1
    12    42    41    1
    13     7     3    1
    14    50    45   ar
    15    50    49   ar
    16    16    21   ar
    17    16    17   ar
    18    45    46   ar
    19    21    20   ar
    20    41    36    1
    21    41    44    1
    22    37    35    1
    23     4     3   ar
    24     4     5   ar
    25     3     2   ar
    26    36    35   ar
    27    36    33   ar
    28    35    32   ar
    29     2     8    1
    30     2     1   ar
    31     5    17    1
    32     5     6   ar
    33    52    49    1
    34    17    18   ar
    35    49    48   ar
    36    33    46    1
    37    33    31   ar
    38    46    47   ar
    39    32    20    1
    40    32    30   ar
    41    20    19   ar
    42     1     6   ar
    43     1     9    1
    44    31    30   ar
    45    31    34    1
    46    30    38    1
    47    38    39    3
    48     9    10    3
    49    48    47   ar
    50    48    56    1
    51    18    19   ar
    52    18    22    1
    53    47    51    1
    54    19    26    1
    55    39    40    1
    56    10    11    1
    57    57    56    1
    58    56    59    1
    59    56    58    1
    60    28    26    1
    61    26    29    1
    62    26    27    1
