@<TRIPOS>MOLECULE
mol_data/opt/m06hf/geoms/mol2/6ei6ei6ei6ei-.out
 58 61 0 0 0
SMALL
GASTEIGER

@<TRIPOS>ATOM
      1 C          -2.3251   -0.6359   -0.8098 C.ar    1  LIG1        0.1138
      2 C          -2.6239   -1.9525   -0.4566 C.ar    1  LIG1       -0.0275
      3 C          -3.8907   -2.2233    0.0399 C.ar    1  LIG1       -0.0542
      4 C          -4.8356   -1.2052    0.1519 C.ar    1  LIG1       -0.0243
      5 C          -4.4336    0.0735   -0.2700 C.ar    1  LIG1        0.0779
      6 N          -3.2109    0.3551   -0.7129 N.ar    1  LIG1       -0.2381
      7 H          -4.1484   -3.2279    0.3540 H       1  LIG1        0.0622
      8 H          -1.8702   -2.7204   -0.5565 H       1  LIG1        0.0645
      9 C          -1.0008   -0.3034   -1.3002 C.1     1  LIG1       -0.0498
     10 C           0.1035   -0.0591   -1.7042 C.1     1  LIG1       -0.1124
     11 H           1.0781    0.1717   -2.0689 H       1  LIG1        0.1232
     12 C          -6.2088   -1.4781    0.7316 C.3     1  LIG1       -0.0377
     13 H          -6.9246   -1.6648   -0.0700 H       1  LIG1        0.0278
     14 H          -6.5584   -0.6222    1.3091 H       1  LIG1        0.0278
     15 H          -6.1649   -2.3513    1.3823 H       1  LIG1        0.0278
     16 C          -6.5394    1.3379   -0.9264 C.ar    1  LIG1        0.1230
     17 C          -5.3565    1.2488   -0.1855 C.ar    1  LIG1        0.0347
     18 C          -5.0167    2.3378    0.6126 C.ar    1  LIG1       -0.0449
     19 C          -5.8607    3.4371    0.7148 C.ar    1  LIG1       -0.0237
     20 C          -7.0567    3.3799   -0.0228 C.ar    1  LIG1        0.0780
     21 N          -7.3665    2.3812   -0.8407 N.ar    1  LIG1       -0.2374
     22 H          -4.0717    2.3209    1.1431 H       1  LIG1        0.0628
     23 C          -6.8988    0.3021   -1.8772 C.1     1  LIG1       -0.0491
     24 C          -7.1808   -0.5497   -2.6765 C.1     1  LIG1       -0.1124
     25 H          -7.4327   -1.2953   -3.3953 H       1  LIG1        0.1232
     26 C          -5.4801    4.6432    1.5488 C.3     1  LIG1       -0.0377
     27 H          -6.0334    4.6423    2.4888 H       1  LIG1        0.0278
     28 H          -5.7143    5.5631    1.0119 H       1  LIG1        0.0278
     29 H          -4.4119    4.6186    1.7612 H       1  LIG1        0.0278
     30 C          -8.7464    4.8658    1.1596 C.ar    1  LIG1        0.1230
     31 C          -8.0435    4.5052    0.0059 C.ar    1  LIG1        0.0347
     32 C          -8.2991    5.2304   -1.1551 C.ar    1  LIG1       -0.0449
     33 C          -9.2084    6.2811   -1.1523 C.ar    1  LIG1       -0.0237
     34 C          -9.8590    6.5453    0.0662 C.ar    1  LIG1        0.0780
     35 N          -9.6254    5.8696    1.1847 N.ar    1  LIG1       -0.2374
     36 H          -7.7702    4.9657   -2.0633 H       1  LIG1        0.0628
     37 C          -8.5768    4.1229    2.3951 C.1     1  LIG1       -0.0491
     38 C          -8.4388    3.4937    3.4091 C.1     1  LIG1       -0.1124
     39 H          -8.3323    2.9346    4.3100 H       1  LIG1        0.1232
     40 C          -9.4544    7.1094   -2.3967 C.3     1  LIG1       -0.0377
     41 H          -9.4941    8.1698   -2.1450 H       1  LIG1        0.0278
     42 H         -10.4043    6.8273   -2.8522 H       1  LIG1        0.0278
     43 H          -8.6511    6.9431   -3.1135 H       1  LIG1        0.0278
     44 C         -12.0797    7.6534   -0.4796 C.ar    1  LIG1        0.1223
     45 C         -10.8481    7.6631    0.1917 C.ar    1  LIG1        0.0347
     46 C         -10.5732    8.7432    1.0234 C.ar    1  LIG1       -0.0455
     47 C         -11.4873    9.7865    1.1396 C.ar    1  LIG1       -0.0316
     48 C         -12.6647    9.6788    0.3968 C.ar    1  LIG1        0.0319
     49 N         -12.9643    8.6457   -0.3813 N.ar    1  LIG1       -0.2458
     50 H          -9.6431    8.7569    1.5804 H       1  LIG1        0.0628
     51 H         -13.4082   10.4672    0.4429 H       1  LIG1        0.0832
     52 C         -12.4620    6.5142   -1.2939 C.1     1  LIG1       -0.0491
     53 C         -12.7673    5.5591   -1.9550 C.1     1  LIG1       -0.1124
     54 H         -13.0472    4.7093   -2.5337 H       1  LIG1        0.1232
     55 C         -11.2253   10.9756    2.0410 C.3     1  LIG1       -0.0383
     56 H         -10.2512   11.4124    1.8184 H       1  LIG1        0.0278
     57 H         -11.2323   10.6611    3.0857 H       1  LIG1        0.0278
     58 H         -11.9909   11.7377    1.9007 H       1  LIG1        0.0278
@<TRIPOS>BOND
     1    25    24    1
     2    43    40    1
     3    42    40    1
     4    24    23    3
     5    54    53    1
     6    40    41    1
     7    40    33    1
     8    11    10    1
     9    36    32    1
    10    53    52    3
    11    23    16    1
    12    10     9    3
    13     9     1    1
    14    52    44    1
    15    32    33   ar
    16    32    31   ar
    17    33    34   ar
    18    16    21   ar
    19    16    17   ar
    20    21    20   ar
    21     1     6   ar
    22     1     2   ar
    23     6     5   ar
    24     8     2    1
    25    44    49   ar
    26    44    45   ar
    27     2     3   ar
    28    49    48   ar
    29     5    17    1
    30     5     4   ar
    31    17    18   ar
    32    13    12    1
    33    20    31    1
    34    20    19   ar
    35    31    30   ar
    36     3     4   ar
    37     3     7    1
    38    34    45    1
    39    34    35   ar
    40     4    12    1
    41    45    46   ar
    42    48    51    1
    43    48    47   ar
    44    18    19   ar
    45    18    22    1
    46    19    26    1
    47    12    14    1
    48    12    15    1
    49    28    26    1
    50    46    47   ar
    51    46    50    1
    52    47    55    1
    53    30    35   ar
    54    30    37    1
    55    26    29    1
    56    26    27    1
    57    56    55    1
    58    58    55    1
    59    55    57    1
    60    37    38    3
    61    38    39    1
