@<TRIPOS>MOLECULE
mol_data/opt/m06hf/geoms/mol2/6el12ih-4aa-12hi-.out
 51 54 0 0 0
SMALL
GASTEIGER

@<TRIPOS>ATOM
      1 C          -4.0507   -2.1173    0.8144 C.ar    1  LIG1        0.1142
      2 C          -2.7901   -2.1164    0.2223 C.ar    1  LIG1       -0.0243
      3 C          -2.3485   -0.9614   -0.4134 C.ar    1  LIG1       -0.0151
      4 C          -3.1827    0.1516   -0.4298 C.ar    1  LIG1        0.1491
      5 C          -4.4285    0.0679    0.2292 C.ar    1  LIG1        0.1491
      6 N          -4.8431   -1.0438    0.8179 N.ar    1  LIG1       -0.2316
      7 H          -1.3810   -0.9453   -0.8947 H       1  LIG1        0.0656
      8 H          -2.1777   -3.0057    0.2572 H       1  LIG1        0.0646
      9 C          -4.5392   -3.3144    1.4708 C.1     1  LIG1       -0.0498
     10 C          -4.9172   -4.3206    2.0058 C.1     1  LIG1       -0.1124
     11 H          -5.2677   -5.2048    2.4858 H       1  LIG1        0.1232
     12 O          -2.8941    1.3130   -1.0543 O.3     1  LIG1       -0.4929
     13 C          -1.6269    1.4429   -1.6721 C.3     1  LIG1        0.0789
     14 H          -1.6006    2.4490   -2.0810 H       1  LIG1        0.0660
     15 H          -0.8269    1.3198   -0.9373 H       1  LIG1        0.0660
     16 H          -1.5130    0.7139   -2.4776 H       1  LIG1        0.0660
     17 C          -5.3477    1.2243    0.2625 C.ar    1  LIG1        0.1621
     18 C          -5.1538    2.5591    0.4608 C.ar    1  LIG1        0.0183
     19 C          -6.4701    3.1393    0.4186 C.ar    1  LIG1        0.0746
     20 C          -7.3469    2.1094    0.2292 C.ar    1  LIG1        0.1565
     21 O          -6.6576    0.9458    0.1257 O.2     1  LIG1       -0.4510
     22 C          -3.8839    3.3196    0.7373 C.3     1  LIG1       -0.0343
     23 H          -4.0842    4.0925    1.4816 H       1  LIG1        0.0279
     24 H          -3.5033    3.7866   -0.1742 H       1  LIG1        0.0279
     25 H          -3.1158    2.6524    1.1245 H       1  LIG1        0.0279
     26 N          -6.7516    4.5074    0.5765 N.pl3   1  LIG1       -0.3548
     27 H          -5.9934    5.0853    0.2322 H       1  LIG1        0.1424
     28 H          -7.6146    4.7719    0.1137 H       1  LIG1        0.1424
     29 C          -9.5987    3.0430    0.7082 C.ar    1  LIG1       -0.0504
     30 C         -10.9804    3.0214    0.5552 C.ar    1  LIG1       -0.0504
     31 C          -8.8042    2.0684    0.0953 C.ar    1  LIG1        0.0192
     32 C         -11.5904    2.0232   -0.2116 C.ar    1  LIG1        0.0191
     33 H         -11.5955    3.7474    1.0734 H       1  LIG1        0.0625
     34 C          -9.4197    1.0458   -0.6388 C.ar    1  LIG1       -0.0504
     35 C         -10.7964    1.0241   -0.7911 C.ar    1  LIG1       -0.0504
     36 H          -8.8037    0.2768   -1.0864 H       1  LIG1        0.0625
     37 H          -9.1365    3.7843    1.3495 H       1  LIG1        0.0625
     38 H         -11.2729    0.2381   -1.3617 H       1  LIG1        0.0625
     39 C         -13.0439    2.0110   -0.3890 C.ar    1  LIG1        0.1556
     40 C         -13.9865    2.9961   -0.3357 C.ar    1  LIG1        0.0739
     41 C         -15.2581    2.3642   -0.5964 C.ar    1  LIG1        0.0086
     42 C         -14.9673    1.0565   -0.7990 C.ar    1  LIG1        0.0973
     43 O         -13.6476    0.8269   -0.6857 O.2     1  LIG1       -0.4608
     44 H         -15.5893    0.2065   -1.0210 H       1  LIG1        0.1033
     45 N         -13.7974    4.3617   -0.0639 N.pl3   1  LIG1       -0.3548
     46 H         -12.9221    4.7104   -0.4397 H       1  LIG1        0.1424
     47 H         -14.5673    4.9261   -0.4013 H       1  LIG1        0.1424
     48 C         -16.6026    3.0416   -0.6255 C.3     1  LIG1       -0.0350
     49 H         -17.3886    2.3069   -0.7969 H       1  LIG1        0.0279
     50 H         -16.6485    3.7837   -1.4262 H       1  LIG1        0.0279
     51 H         -16.7963    3.5430    0.3243 H       1  LIG1        0.0279
@<TRIPOS>BOND
     1    16    13    1
     2    14    13    1
     3    13    12    1
     4    13    15    1
     5    50    48    1
     6    38    35    1
     7    36    34    1
     8    12     4    1
     9    44    42    1
    10     7     3    1
    11    42    43   ar
    12    42    41   ar
    13    49    48    1
    14    35    34   ar
    15    35    32   ar
    16    43    39   ar
    17    34    31   ar
    18    48    41    1
    19    48    51    1
    20    41    40   ar
    21    46    45    1
    22     4     3   ar
    23     4     5   ar
    24     3     2   ar
    25    47    45    1
    26    39    40   ar
    27    39    32    1
    28    40    45    1
    29    32    30   ar
    30    24    22    1
    31    31    20    1
    32    31    29   ar
    33    28    26    1
    34    21    20   ar
    35    21    17   ar
    36     2     8    1
    37     2     1   ar
    38    20    19   ar
    39     5    17    1
    40     5     6   ar
    41    27    26    1
    42    17    18   ar
    43    19    18   ar
    44    19    26    1
    45    18    22    1
    46    30    29   ar
    47    30    33    1
    48    29    37    1
    49    22    25    1
    50    22    23    1
    51     1     6   ar
    52     1     9    1
    53     9    10    3
    54    10    11    1
