@<TRIPOS>MOLECULE
mol_data/opt/m06hf/geoms/mol2/6el13ah-6hd12il-.out
 53 56 0 0 0
SMALL
GASTEIGER

@<TRIPOS>ATOM
      1 C          -4.6365   -2.0528    0.6402 C.ar    1  LIG1        0.1141
      2 C          -3.2586   -2.1894    0.7700 C.ar    1  LIG1       -0.0243
      3 C          -2.4551   -1.0664    0.5874 C.ar    1  LIG1       -0.0151
      4 C          -3.0547    0.1490    0.2846 C.ar    1  LIG1        0.1475
      5 C          -4.4623    0.1952    0.1725 C.ar    1  LIG1        0.1300
      6 N          -5.2126   -0.8843    0.3479 N.ar    1  LIG1       -0.2333
      7 H          -1.3821   -1.1504    0.6845 H       1  LIG1        0.0656
      8 H          -2.8312   -3.1524    1.0076 H       1  LIG1        0.0646
      9 C          -5.5025   -3.2009    0.8221 C.1     1  LIG1       -0.0498
     10 C          -6.1965   -4.1677    0.9800 C.1     1  LIG1       -0.1124
     11 H          -6.8229   -5.0178    1.1226 H       1  LIG1        0.1232
     12 O          -2.3883    1.3050    0.0844 O.3     1  LIG1       -0.4929
     13 C          -0.9723    1.2802    0.1481 C.3     1  LIG1        0.0789
     14 H          -0.6500    2.2964   -0.0600 H       1  LIG1        0.0660
     15 H          -0.6381    0.9823    1.1443 H       1  LIG1        0.0660
     16 H          -0.5679    0.6005   -0.6057 H       1  LIG1        0.0660
     17 C          -5.1944    1.4305   -0.1461 C.ar    1  LIG1        0.0708
     18 C          -4.8179    2.7315   -0.4425 C.ar    1  LIG1       -0.0135
     19 C          -6.0074    3.4622   -0.6729 C.ar    1  LIG1        0.0509
     20 C          -7.0742    2.5880   -0.5124 C.ar    1  LIG1        0.0712
     21 N          -6.5487    1.3615   -0.2082 N.ar    1  LIG1       -0.3513
     22 H          -7.0663    0.5217    0.0254 H       1  LIG1        0.1660
     23 H          -3.8094    3.1009   -0.4909 H       1  LIG1        0.0658
     24 N          -6.1293    4.8398   -0.9748 N.pl3   1  LIG1       -0.3563
     25 H          -5.2226    5.2853   -1.0461 H       1  LIG1        0.1424
     26 H          -6.6467    4.9964   -1.8350 H       1  LIG1        0.1424
     27 C          -9.4564    1.8839   -1.0021 C.ar    1  LIG1        0.1263
     28 C          -8.5154    2.8611   -0.5723 C.ar    1  LIG1        0.0409
     29 C          -9.0200    4.0953   -0.2057 C.ar    1  LIG1       -0.0297
     30 C         -10.4028    4.3201   -0.2313 C.ar    1  LIG1        0.0815
     31 C         -11.2485    3.2662   -0.5920 C.ar    1  LIG1        0.1257
     32 N         -10.7663    2.0880   -0.9838 N.ar    1  LIG1       -0.2274
     33 H          -8.3374    4.8824    0.0926 H       1  LIG1        0.0639
     34 N          -9.0383    0.6423   -1.4183 N.pl3   1  LIG1       -0.3426
     35 H          -9.7802    0.0825   -1.8156 H       1  LIG1        0.1437
     36 H          -8.1459    0.5914   -1.8909 H       1  LIG1        0.1437
     37 N         -11.2799    6.7038    0.2786 N.1     1  LIG1       -0.1908
     38 C         -10.9126    5.6384    0.0565 C.1     1  LIG1        0.1014
     39 C         -12.7164    3.4011   -0.5798 C.ar    1  LIG1        0.1608
     40 C         -13.5861    3.9526    0.3137 C.ar    1  LIG1        0.0385
     41 C         -14.8877    3.6792   -0.2435 C.ar    1  LIG1        0.1612
     42 C         -14.6968    2.9973   -1.3998 C.ar    1  LIG1        0.1344
     43 O         -13.3791    2.8182   -1.6050 O.2     1  LIG1       -0.4573
     44 H         -15.3750    2.5884   -2.1269 H       1  LIG1        0.1068
     45 C         -13.3460    4.5993    1.6526 C.3     1  LIG1       -0.0326
     46 H         -14.1636    4.3196    2.3180 H       1  LIG1        0.0280
     47 H         -13.3079    5.6856    1.5625 H       1  LIG1        0.0280
     48 H         -12.4026    4.2585    2.0793 H       1  LIG1        0.0280
     49 O         -16.0808    4.0105    0.3228 O.3     1  LIG1       -0.4917
     50 C         -16.4380    5.3770    0.1265 C.3     1  LIG1        0.0789
     51 H         -17.3913    5.5203    0.6292 H       1  LIG1        0.0660
     52 H         -15.6837    6.0374    0.5587 H       1  LIG1        0.0660
     53 H         -16.5374    5.5872   -0.9399 H       1  LIG1        0.0660
@<TRIPOS>BOND
     1    44    42    1
     2    36    34    1
     3    26    24    1
     4    35    34    1
     5    43    42   ar
     6    43    39   ar
     7    34    27    1
     8    42    41   ar
     9    25    24    1
    10    27    32   ar
    11    27    28   ar
    12    32    31   ar
    13    24    19    1
    14    53    50    1
    15    19    20   ar
    16    19    18   ar
    17    16    13    1
    18    31    39    1
    19    31    30   ar
    20    39    40   ar
    21    28    20    1
    22    28    29   ar
    23    20    21   ar
    24    23    18    1
    25    18    17   ar
    26    41    40   ar
    27    41    49    1
    28    30    29   ar
    29    30    38    1
    30    21    17   ar
    31    21    22    1
    32    29    33    1
    33    17     5    1
    34    14    13    1
    35    38    37    3
    36    12    13    1
    37    12     4    1
    38    50    49    1
    39    50    52    1
    40    50    51    1
    41    13    15    1
    42     5     4   ar
    43     5     6   ar
    44     4     3   ar
    45    40    45    1
    46     6     1   ar
    47     3     7    1
    48     3     2   ar
    49     1     2   ar
    50     1     9    1
    51     2     8    1
    52     9    10    3
    53    10    11    1
    54    47    45    1
    55    45    48    1
    56    45    46    1
