@<TRIPOS>MOLECULE
mol_data/opt/m06hf/geoms/mol2/6el6el6el6el.out
 62 65 0 0 0
SMALL
GASTEIGER

@<TRIPOS>ATOM
      1 C          -3.6044   -1.4978   -2.0089 C.ar    1  LIG1        0.1141
      2 C          -2.8818   -2.1524   -1.0145 C.ar    1  LIG1       -0.0243
      3 C          -2.9092   -1.6478    0.2811 C.ar    1  LIG1       -0.0152
      4 C          -3.6609   -0.5049    0.5339 C.ar    1  LIG1        0.1461
      5 C          -4.3700    0.0820   -0.5355 C.ar    1  LIG1        0.1166
      6 N          -4.3306   -0.4040   -1.7638 N.ar    1  LIG1       -0.2347
      7 H          -2.3566   -2.1426    1.0672 H       1  LIG1        0.0656
      8 H          -2.3120   -3.0372   -1.2588 H       1  LIG1        0.0646
      9 C          -3.5840   -2.0020   -3.3677 C.1     1  LIG1       -0.0498
     10 C          -3.5444   -2.4423   -4.4839 C.1     1  LIG1       -0.1124
     11 H          -3.5183   -2.8232   -5.4785 H       1  LIG1        0.1232
     12 O          -3.7666    0.0932    1.7407 O.3     1  LIG1       -0.4930
     13 C          -3.2138   -0.5719    2.8642 C.3     1  LIG1        0.0789
     14 H          -3.4806    0.0344    3.7249 H       1  LIG1        0.0660
     15 H          -3.6444   -1.5705    2.9651 H       1  LIG1        0.0660
     16 H          -2.1263   -0.6366    2.7797 H       1  LIG1        0.0660
     17 C          -6.5672    1.3048   -0.6592 C.ar    1  LIG1        0.1233
     18 C          -5.2137    1.2939   -0.3097 C.ar    1  LIG1        0.0413
     19 C          -4.6587    2.4520    0.2328 C.ar    1  LIG1       -0.0059
     20 C          -5.4577    3.5765    0.3849 C.ar    1  LIG1        0.1467
     21 C          -6.8107    3.4938   -0.0034 C.ar    1  LIG1        0.1167
     22 N          -7.3321    2.3885   -0.5045 N.ar    1  LIG1       -0.2340
     23 H          -3.6180    2.4511    0.5256 H       1  LIG1        0.0662
     24 C          -7.2192    0.1197   -1.1786 C.1     1  LIG1       -0.0491
     25 C          -7.7693   -0.8638   -1.5913 C.1     1  LIG1       -0.1124
     26 H          -8.2606   -1.7312   -1.9664 H       1  LIG1        0.1232
     27 O          -5.0295    4.7585    0.8845 O.3     1  LIG1       -0.4929
     28 C          -3.7243    4.8094    1.4348 C.3     1  LIG1        0.0789
     29 H          -3.6207    5.8059    1.8549 H       1  LIG1        0.0660
     30 H          -3.6134    4.0597    2.2217 H       1  LIG1        0.0660
     31 H          -2.9709    4.6531    0.6593 H       1  LIG1        0.0660
     32 C          -8.9364    4.5718    0.8211 C.ar    1  LIG1        0.1233
     33 C          -7.7166    4.6717    0.1452 C.ar    1  LIG1        0.0413
     34 C          -7.3697    5.8988   -0.4174 C.ar    1  LIG1       -0.0059
     35 C          -8.2483    6.9673   -0.3065 C.ar    1  LIG1        0.1467
     36 C          -9.4586    6.7691    0.3879 C.ar    1  LIG1        0.1167
     37 N          -9.7747    5.6063    0.9285 N.ar    1  LIG1       -0.2340
     38 H          -6.4203    5.9944   -0.9254 H       1  LIG1        0.0662
     39 C          -9.3429    3.3423    1.4714 C.1     1  LIG1       -0.0491
     40 C          -9.6827    2.3333    2.0250 C.1     1  LIG1       -0.1124
     41 H          -9.9941    1.4346    2.5035 H       1  LIG1        0.1232
     42 O          -8.0231    8.1986   -0.8211 O.3     1  LIG1       -0.4929
     43 C          -6.7520    8.4486   -1.3948 C.3     1  LIG1        0.0789
     44 H          -6.7548    9.4987   -1.6726 H       1  LIG1        0.0660
     45 H          -5.9607    8.2574   -0.6661 H       1  LIG1        0.0660
     46 H          -6.6006    7.8303   -2.2832 H       1  LIG1        0.0660
     47 C         -10.9232    8.2578    1.7973 C.ar    1  LIG1        0.1226
     48 C         -10.4392    7.8858    0.5404 C.ar    1  LIG1        0.0412
     49 C         -10.9092    8.5616   -0.5878 C.ar    1  LIG1       -0.0065
     50 C         -11.8559    9.5606   -0.4172 C.ar    1  LIG1        0.1388
     51 C         -12.2878    9.8536    0.8850 C.ar    1  LIG1        0.0706
     52 N         -11.8333    9.2298    1.9531 N.ar    1  LIG1       -0.2424
     53 H         -10.5271    8.2910   -1.5621 H       1  LIG1        0.0662
     54 H         -13.0282   10.6318    1.0251 H       1  LIG1        0.0867
     55 C         -10.4381    7.6279    3.0087 C.1     1  LIG1       -0.0491
     56 C         -10.0285    7.1193    4.0158 C.1     1  LIG1       -0.1124
     57 H          -9.6760    6.6562    4.9075 H       1  LIG1        0.1232
     58 O         -12.4110   10.2905   -1.4120 O.3     1  LIG1       -0.4936
     59 C         -12.0168    9.9943   -2.7386 C.3     1  LIG1        0.0789
     60 H         -12.5831   10.6680   -3.3755 H       1  LIG1        0.0660
     61 H         -10.9463   10.1707   -2.8707 H       1  LIG1        0.0660
     62 H         -12.2570    8.9577   -2.9889 H       1  LIG1        0.0660
@<TRIPOS>BOND
     1    11    10    1
     2    10     9    3
     3    60    59    1
     4     9     1    1
     5    62    59    1
     6    61    59    1
     7    59    58    1
     8    46    43    1
     9     1     6   ar
    10     1     2   ar
    11    26    25    1
    12     6     5   ar
    13    44    43    1
    14    25    24    3
    15    53    49    1
    16    58    50    1
    17    43    42    1
    18    43    45    1
    19     8     2    1
    20    24    17    1
    21     2     3   ar
    22    38    34    1
    23    42    35    1
    24    17    22   ar
    25    17    18   ar
    26    49    50   ar
    27    49    48   ar
    28     5    18    1
    29     5     4   ar
    30    22    21   ar
    31    34    35   ar
    32    34    33   ar
    33    50    51   ar
    34    18    19   ar
    35    35    36   ar
    36    21    33    1
    37    21    20   ar
    38    33    32   ar
    39    19    20   ar
    40    19    23    1
    41     3     4   ar
    42     3     7    1
    43    20    27    1
    44    36    48    1
    45    36    37   ar
    46     4    12    1
    47    48    47   ar
    48    31    28    1
    49    32    37   ar
    50    32    39    1
    51    27    28    1
    52    51    54    1
    53    51    52   ar
    54    28    29    1
    55    28    30    1
    56    39    40    3
    57    12    13    1
    58    47    52   ar
    59    47    55    1
    60    40    41    1
    61    16    13    1
    62    13    15    1
    63    13    14    1
    64    55    56    3
    65    56    57    1
