@<TRIPOS>MOLECULE
mol_data/opt/m06hf/geoms/mol2/6el6el6el6el-.out
 62 65 0 0 0
SMALL
GASTEIGER

@<TRIPOS>ATOM
      1 C          -3.9582   -1.9916   -1.1894 C.ar    1  LIG1        0.1141
      2 C          -2.9213   -2.2654   -0.3016 C.ar    1  LIG1       -0.0243
      3 C          -2.6248   -1.3409    0.6938 C.ar    1  LIG1       -0.0152
      4 C          -3.3804   -0.1750    0.7650 C.ar    1  LIG1        0.1461
      5 C          -4.4183    0.0108   -0.1724 C.ar    1  LIG1        0.1166
      6 N          -4.6841   -0.8730   -1.1188 N.ar    1  LIG1       -0.2347
      7 H          -1.8245   -1.5368    1.3932 H       1  LIG1        0.0656
      8 H          -2.3626   -3.1858   -0.3956 H       1  LIG1        0.0646
      9 C          -4.2835   -2.9380   -2.2380 C.1     1  LIG1       -0.0498
     10 C          -4.5312   -3.7389   -3.0974 C.1     1  LIG1       -0.1124
     11 H          -4.7630   -4.4388   -3.8663 H       1  LIG1        0.1232
     12 O          -3.1939    0.8043    1.6776 O.3     1  LIG1       -0.4930
     13 C          -2.2843    0.5610    2.7374 C.3     1  LIG1        0.0789
     14 H          -2.3540    1.4266    3.3898 H       1  LIG1        0.0660
     15 H          -2.5692   -0.3405    3.2841 H       1  LIG1        0.0660
     16 H          -1.2642    0.4647    2.3583 H       1  LIG1        0.0660
     17 C          -6.6728    1.1275   -0.0697 C.ar    1  LIG1        0.1233
     18 C          -5.2788    1.2306   -0.1223 C.ar    1  LIG1        0.0413
     19 C          -4.7097    2.5022   -0.1523 C.ar    1  LIG1       -0.0059
     20 C          -5.5386    3.6157   -0.1470 C.ar    1  LIG1        0.1467
     21 C          -6.9330    3.4122   -0.0991 C.ar    1  LIG1        0.1167
     22 N          -7.4636    2.2030   -0.0630 N.ar    1  LIG1       -0.2340
     23 H          -3.6332    2.5970   -0.1748 H       1  LIG1        0.0662
     24 C          -7.3320   -0.1600    0.0189 C.1     1  LIG1       -0.0491
     25 C          -7.8829   -1.2223    0.1100 C.1     1  LIG1       -0.1124
     26 H          -8.3739   -2.1650    0.1765 H       1  LIG1        0.1232
     27 O          -5.0985    4.8947   -0.1846 O.3     1  LIG1       -0.4929
     28 C          -3.7003    5.1145   -0.1229 C.3     1  LIG1        0.0789
     29 H          -3.5717    6.1933   -0.1132 H       1  LIG1        0.0660
     30 H          -3.2857    4.6822    0.7905 H       1  LIG1        0.0660
     31 H          -3.2032    4.6896   -0.9987 H       1  LIG1        0.0660
     32 C          -8.8970    4.6648    0.8681 C.ar    1  LIG1        0.1233
     33 C          -7.8719    4.5732   -0.0802 C.ar    1  LIG1        0.0413
     34 C          -7.7624    5.5813   -1.0374 C.ar    1  LIG1       -0.0059
     35 C          -8.6691    6.6307   -1.0218 C.ar    1  LIG1        0.1467
     36 C          -9.6383    6.6591   -0.0018 C.ar    1  LIG1        0.1167
     37 N          -9.7523    5.6925    0.8922 N.ar    1  LIG1       -0.2340
     38 H          -6.9831    5.5213   -1.7842 H       1  LIG1        0.0662
     39 C          -9.0593    3.6719    1.9110 C.1     1  LIG1       -0.0491
     40 C          -9.1953    2.8651    2.7892 C.1     1  LIG1       -0.1124
     41 H          -9.3222    2.1395    3.5584 H       1  LIG1        0.1232
     42 O          -8.7131    7.6203   -1.9352 O.3     1  LIG1       -0.4929
     43 C          -7.5437    7.8725   -2.6932 C.3     1  LIG1        0.0789
     44 H          -7.7110    8.8278   -3.1821 H       1  LIG1        0.0660
     45 H          -6.6754    7.9376   -2.0330 H       1  LIG1        0.0660
     46 H          -7.3919    7.0919   -3.4423 H       1  LIG1        0.0660
     47 C         -10.2124    9.1344    0.1334 C.ar    1  LIG1        0.1226
     48 C         -10.6143    7.7851    0.0850 C.ar    1  LIG1        0.0412
     49 C         -11.9663    7.5033    0.1674 C.ar    1  LIG1       -0.0065
     50 C         -12.8788    8.5543    0.2530 C.ar    1  LIG1        0.1388
     51 C         -12.3849    9.8607    0.2615 C.ar    1  LIG1        0.0706
     52 N         -11.0839   10.1329    0.2151 N.ar    1  LIG1       -0.2424
     53 H         -12.3218    6.4812    0.1684 H       1  LIG1        0.0662
     54 H         -13.0450   10.7160    0.3196 H       1  LIG1        0.0867
     55 C          -8.8080    9.5023    0.1619 C.1     1  LIG1       -0.0491
     56 C          -7.6513    9.8216    0.2265 C.1     1  LIG1       -0.1124
     57 H          -6.6313   10.1196    0.3005 H       1  LIG1        0.1232
     58 O         -14.1893    8.2292    0.3201 O.3     1  LIG1       -0.4936
     59 C         -15.1282    9.2835    0.4328 C.3     1  LIG1        0.0789
     60 H         -16.1023    8.8069    0.4952 H       1  LIG1        0.0660
     61 H         -14.9436    9.8691    1.3367 H       1  LIG1        0.0660
     62 H         -15.0890    9.9308   -0.4466 H       1  LIG1        0.0660
@<TRIPOS>BOND
     1    11    10    1
     2    46    43    1
     3    44    43    1
     4    10     9    3
     5    43    45    1
     6    43    42    1
     7     9     1    1
     8    42    35    1
     9    38    34    1
    10     1     6   ar
    11     1     2   ar
    12     6     5   ar
    13    34    35   ar
    14    34    33   ar
    15    35    36   ar
    16    31    28    1
    17    62    59    1
    18     8     2    1
    19     2     3   ar
    20    27    20    1
    21    27    28    1
    22    23    19    1
    23     5    18    1
    24     5     4   ar
    25    19    20   ar
    26    19    18   ar
    27    20    21   ar
    28    28    29    1
    29    28    30    1
    30    18    17   ar
    31    21    33    1
    32    21    22   ar
    33    33    32   ar
    34    17    22   ar
    35    17    24    1
    36    36    48    1
    37    36    37   ar
    38    24    25    3
    39    48    47   ar
    40    48    49   ar
    41    25    26    1
    42    47    55    1
    43    47    52   ar
    44    55    56    3
    45    49    53    1
    46    49    50   ar
    47    52    51   ar
    48    56    57    1
    49    50    51   ar
    50    50    58    1
    51    51    54    1
    52    58    59    1
    53    59    60    1
    54    59    61    1
    55     3     4   ar
    56     3     7    1
    57     4    12    1
    58    32    37   ar
    59    32    39    1
    60    12    13    1
    61    39    40    3
    62    16    13    1
    63    13    15    1
    64    13    14    1
    65    40    41    1
