@<TRIPOS>MOLECULE
mol_data/opt/m06hf/geoms/mol2/6el6el.out
 32 33 0 0 0
SMALL
GASTEIGER

@<TRIPOS>ATOM
      1 C          -4.5001   -2.0458   -0.7581 C.ar    1  LIG1        0.1141
      2 C          -3.1828   -2.1958   -0.3338 C.ar    1  LIG1       -0.0243
      3 C          -2.5334   -1.1092    0.2420 C.ar    1  LIG1       -0.0152
      4 C          -3.2299    0.0871    0.3750 C.ar    1  LIG1        0.1461
      5 C          -4.5665    0.1418   -0.0746 C.ar    1  LIG1        0.1166
      6 N          -5.1683   -0.8963   -0.6285 N.ar    1  LIG1       -0.2347
      7 H          -1.5110   -1.2058    0.5790 H       1  LIG1        0.0656
      8 H          -2.6821   -3.1450   -0.4576 H       1  LIG1        0.0646
      9 C          -5.1971   -3.1627   -1.3651 C.1     1  LIG1       -0.0498
     10 C          -5.7495   -4.1060   -1.8613 C.1     1  LIG1       -0.1124
     11 H          -6.2524   -4.9348   -2.3028 H       1  LIG1        0.1232
     12 O          -2.7173    1.2160    0.9125 O.3     1  LIG1       -0.4930
     13 C          -1.4272    1.1503    1.4959 C.3     1  LIG1        0.0789
     14 H          -1.2511    2.1290    1.9324 H       1  LIG1        0.0660
     15 H          -1.3986    0.3858    2.2758 H       1  LIG1        0.0660
     16 H          -0.6697    0.9406    0.7365 H       1  LIG1        0.0660
     17 C          -6.6009    1.3883    0.7220 C.ar    1  LIG1        0.1226
     18 C          -5.3632    1.3968    0.0737 C.ar    1  LIG1        0.0412
     19 C          -4.8862    2.6007   -0.4500 C.ar    1  LIG1       -0.0065
     20 C          -5.6722    3.7363   -0.3246 C.ar    1  LIG1        0.1388
     21 C          -6.9078    3.6220    0.3313 C.ar    1  LIG1        0.0706
     22 N          -7.3529    2.4916    0.8408 N.ar    1  LIG1       -0.2424
     23 H          -3.9207    2.6188   -0.9360 H       1  LIG1        0.0662
     24 H          -7.5261    4.5057    0.4312 H       1  LIG1        0.0867
     25 C          -7.1191    0.1824    1.3359 C.1     1  LIG1       -0.0491
     26 C          -7.5420   -0.8112    1.8607 C.1     1  LIG1       -0.1124
     27 H          -7.9212   -1.6983    2.3124 H       1  LIG1        0.1232
     28 O          -5.3503    4.9666   -0.7846 O.3     1  LIG1       -0.4936
     29 C          -4.0972    5.1184   -1.4247 C.3     1  LIG1        0.0789
     30 H          -4.0281    6.1670   -1.6999 H       1  LIG1        0.0660
     31 H          -3.2835    4.8586   -0.7425 H       1  LIG1        0.0660
     32 H          -4.0447    4.4964   -2.3215 H       1  LIG1        0.0660
@<TRIPOS>BOND
     1    32    29    1
     2    11    10    1
     3    10     9    3
     4    30    29    1
     5    29    28    1
     6    29    31    1
     7     9     1    1
     8    23    19    1
     9    28    20    1
    10     1     6   ar
    11     1     2   ar
    12     6     5   ar
    13     8     2    1
    14    19    20   ar
    15    19    18   ar
    16     2     3   ar
    17    20    21   ar
    18     5    18    1
    19     5     4   ar
    20    18    17   ar
    21     3     4   ar
    22     3     7    1
    23    21    24    1
    24    21    22   ar
    25     4    12    1
    26    17    22   ar
    27    17    25    1
    28    16    13    1
    29    12    13    1
    30    25    26    3
    31    13    14    1
    32    13    15    1
    33    26    27    1
