@<TRIPOS>MOLECULE
mol_data/opt/m06hf/geoms/mol2/6el6el6el.out
 47 49 0 0 0
SMALL
GASTEIGER

@<TRIPOS>ATOM
      1 C          -4.2243   -1.8810   -1.4789 C.ar    1  LIG1        0.1141
      2 C          -3.1235   -2.2404   -0.7060 C.ar    1  LIG1       -0.0243
      3 C          -2.7049   -1.3852    0.3073 C.ar    1  LIG1       -0.0152
      4 C          -3.4055   -0.2007    0.5106 C.ar    1  LIG1        0.1461
      5 C          -4.5147    0.0747   -0.3171 C.ar    1  LIG1        0.1166
      6 N          -4.8973   -0.7446   -1.2810 N.ar    1  LIG1       -0.2347
      7 H          -1.8547   -1.6480    0.9205 H       1  LIG1        0.0656
      8 H          -2.6100   -3.1709   -0.9013 H       1  LIG1        0.0646
      9 C          -4.6776   -2.7541   -2.5435 C.1     1  LIG1       -0.0498
     10 C          -5.0274   -3.5012   -3.4157 C.1     1  LIG1       -0.1124
     11 H          -5.3498   -4.1547   -4.1930 H       1  LIG1        0.1232
     12 O          -3.1010    0.7159    1.4558 O.3     1  LIG1       -0.4930
     13 C          -2.0800    0.3984    2.3861 C.3     1  LIG1        0.0789
     14 H          -2.0440    1.2331    3.0800 H       1  LIG1        0.0660
     15 H          -2.3253   -0.5206    2.9234 H       1  LIG1        0.0660
     16 H          -1.1163    0.2930    1.8819 H       1  LIG1        0.0660
     17 C          -6.7029    1.2683    0.0420 C.ar    1  LIG1        0.1233
     18 C          -5.3155    1.3202   -0.1235 C.ar    1  LIG1        0.0413
     19 C          -4.6958    2.5688   -0.1266 C.ar    1  LIG1       -0.0059
     20 C          -5.4716    3.7106    0.0158 C.ar    1  LIG1        0.1467
     21 C          -6.8640    3.5591    0.1722 C.ar    1  LIG1        0.1167
     22 N          -7.4423    2.3717    0.1805 N.ar    1  LIG1       -0.2340
     23 H          -3.6221    2.6236   -0.2364 H       1  LIG1        0.0662
     24 C          -7.4118    0.0063    0.1098 C.1     1  LIG1       -0.0491
     25 C          -8.0088   -1.0321    0.1867 C.1     1  LIG1       -0.1124
     26 H          -8.5458   -1.9503    0.2418 H       1  LIG1        0.1232
     27 O          -4.9820    4.9719    0.0179 O.3     1  LIG1       -0.4929
     28 C          -3.5747    5.1365    0.0030 C.3     1  LIG1        0.0789
     29 H          -3.4024    6.2059    0.0855 H       1  LIG1        0.0660
     30 H          -3.1212    4.6195    0.8518 H       1  LIG1        0.0660
     31 H          -3.1510    4.7637   -0.9328 H       1  LIG1        0.0660
     32 C          -8.6417    4.8294    1.4195 C.ar    1  LIG1        0.1226
     33 C          -7.7472    4.7503    0.3486 C.ar    1  LIG1        0.0412
     34 C          -7.7086    5.7987   -0.5741 C.ar    1  LIG1       -0.0065
     35 C          -8.5762    6.8667   -0.4022 C.ar    1  LIG1        0.1388
     36 C          -9.4476    6.8464    0.6973 C.ar    1  LIG1        0.0706
     37 N          -9.4746    5.8676    1.5786 N.ar    1  LIG1       -0.2424
     38 H          -7.0079    5.7521   -1.3956 H       1  LIG1        0.0662
     39 H         -10.1301    7.6760    0.8360 H       1  LIG1        0.0867
     40 C          -8.6905    3.8027    2.4409 C.1     1  LIG1       -0.0491
     41 C          -8.7246    2.9663    3.3017 C.1     1  LIG1       -0.1124
     42 H          -8.7664    2.2155    4.0563 H       1  LIG1        0.1232
     43 O          -8.6628    7.9463   -1.2125 O.3     1  LIG1       -0.4936
     44 C          -7.8075    7.9929   -2.3393 C.3     1  LIG1        0.0789
     45 H          -8.0376    8.9249   -2.8481 H       1  LIG1        0.0660
     46 H          -6.7600    7.9890   -2.0275 H       1  LIG1        0.0660
     47 H          -8.0012    7.1483   -3.0054 H       1  LIG1        0.0660
@<TRIPOS>BOND
     1    11    10    1
     2    10     9    3
     3    47    44    1
     4    45    44    1
     5     9     1    1
     6    44    46    1
     7    44    43    1
     8     1     6   ar
     9     1     2   ar
    10    38    34    1
    11     6     5   ar
    12    43    35    1
    13    31    28    1
    14     8     2    1
    15     2     3   ar
    16    34    35   ar
    17    34    33   ar
    18    35    36   ar
    19     5    18    1
    20     5     4   ar
    21    23    19    1
    22    19    18   ar
    23    19    20   ar
    24    18    17   ar
    25    28    27    1
    26    28    29    1
    27    28    30    1
    28    20    27    1
    29    20    21   ar
    30    17    24    1
    31    17    22   ar
    32    24    25    3
    33    21    22   ar
    34    21    33    1
    35    25    26    1
    36     3     4   ar
    37     3     7    1
    38    33    32   ar
    39     4    12    1
    40    36    39    1
    41    36    37   ar
    42    32    37   ar
    43    32    40    1
    44    12    13    1
    45    16    13    1
    46    13    15    1
    47    13    14    1
    48    40    41    3
    49    41    42    1
