@<TRIPOS>MOLECULE
mol_data/opt/m06hf/geoms/mol2/6el6eh6ea-13fh4ff4ii-12de6fa.out
 100 107 0 0 0
SMALL
GASTEIGER

@<TRIPOS>ATOM
      1 C          -3.1615   -1.8252   -0.8613 C.ar    1  LIG1        0.1141
      2 C          -2.3106   -2.0349    0.2204 C.ar    1  LIG1       -0.0243
      3 C          -2.2877   -1.1012    1.2513 C.ar    1  LIG1       -0.0152
      4 C          -3.1260    0.0048    1.1645 C.ar    1  LIG1        0.1461
      5 C          -3.9979    0.1005    0.0600 C.ar    1  LIG1        0.1166
      6 N          -3.9875   -0.7759   -0.9305 N.ar    1  LIG1       -0.2347
      7 H          -1.6158   -1.2302    2.0881 H       1  LIG1        0.0656
      8 H          -1.6722   -2.9066    0.2406 H       1  LIG1        0.0646
      9 C          -3.1775   -2.7675   -1.9628 C.1     1  LIG1       -0.0498
     10 C          -3.1636   -3.5658   -2.8595 C.1     1  LIG1       -0.1124
     11 H          -3.1605   -4.2686   -3.6601 H       1  LIG1        0.1232
     12 O          -3.1509    1.0213    2.0440 O.3     1  LIG1       -0.4930
     13 C          -2.5843    0.8120    3.3247 C.3     1  LIG1        0.0789
     14 H          -2.8719    1.6756    3.9174 H       1  LIG1        0.0660
     15 H          -2.9901   -0.0981    3.7721 H       1  LIG1        0.0660
     16 H          -1.4951    0.7516    3.2600 H       1  LIG1        0.0660
     17 C          -5.8532    1.5992    0.9495 C.ar    1  LIG1        0.1232
     18 C          -4.9489    1.2444   -0.0637 C.ar    1  LIG1        0.0396
     19 C          -4.9840    1.9539   -1.2541 C.ar    1  LIG1       -0.0270
     20 C          -5.8757    3.0152   -1.4093 C.ar    1  LIG1        0.0517
     21 C          -6.7095    3.3179   -0.3126 C.ar    1  LIG1        0.0956
     22 N          -6.6991    2.6174    0.8114 N.ar    1  LIG1       -0.2358
     23 H          -4.3207    1.6647   -2.0607 H       1  LIG1        0.0644
     24 C          -5.9547    0.8366    2.1796 C.1     1  LIG1       -0.0491
     25 C          -6.0691    0.1920    3.1873 C.1     1  LIG1       -0.1124
     26 H          -6.1920   -0.3725    4.0822 H       1  LIG1        0.1232
     27 N          -5.9148    3.7645   -2.5747 N.pl3   1  LIG1       -0.3563
     28 H          -5.5409    3.3055   -3.3928 H       1  LIG1        0.1424
     29 H          -6.7861    4.2472   -2.7505 H       1  LIG1        0.1424
     30 C          -9.0451    4.2848   -0.2371 C.ar    1  LIG1        0.1231
     31 C          -7.6641    4.4626   -0.3994 C.ar    1  LIG1        0.0360
     32 C          -7.2058    5.7617   -0.6435 C.ar    1  LIG1       -0.0478
     33 C          -8.1035    6.8124   -0.7070 C.ar    1  LIG1       -0.0334
     34 C          -9.4628    6.5239   -0.5245 C.ar    1  LIG1        0.0922
     35 N          -9.9183    5.2908   -0.2981 N.ar    1  LIG1       -0.2362
     36 H          -6.1443    5.9295   -0.7804 H       1  LIG1        0.0626
     37 C          -9.5957    2.9603   -0.0202 C.1     1  LIG1       -0.0491
     38 C         -10.0427    1.8589    0.1447 C.1     1  LIG1       -0.1124
     39 H         -10.4297    0.8791    0.3035 H       1  LIG1        0.1232
     40 H          -7.7940    7.8325   -0.8898 H       1  LIG1        0.0640
     41 C         -10.4767    7.5704   -0.5880 C.ar    1  LIG1        0.1093
     42 C         -10.4095    8.9267   -0.8325 C.ar    1  LIG1        0.1650
     43 C         -11.7235    9.4447   -0.8116 C.ar    1  LIG1        0.0931
     44 C         -12.5745    8.3775   -0.5582 C.ar    1  LIG1        0.0752
     45 N         -11.8029    7.2681   -0.4179 N.ar    1  LIG1       -0.3484
     46 H         -12.1120    6.3112   -0.3105 H       1  LIG1        0.1661
     47 O          -9.3094    9.6861   -1.0517 O.3     1  LIG1       -0.5030
     48 H          -9.6489   10.5809   -1.2192 H       1  LIG1        0.2923
     49 N         -11.9545   10.8347   -1.0064 N.pl3   1  LIG1       -0.3535
     50 H         -12.6655   10.9687   -1.7209 H       1  LIG1        0.1425
     51 H         -12.2746   11.2794   -0.1508 H       1  LIG1        0.1425
     52 C         -14.8936    9.0357   -1.2399 C.ar    1  LIG1        0.1268
     53 C         -16.2683    8.9741   -1.0450 C.ar    1  LIG1       -0.0083
     54 C         -14.0359    8.3360   -0.3847 C.ar    1  LIG1        0.0451
     55 C         -16.8293    8.2111   -0.0222 C.ar    1  LIG1        0.0273
     56 H         -16.9299    9.5136   -1.7145 H       1  LIG1        0.0661
     57 C         -14.5966    7.5699    0.6403 C.ar    1  LIG1       -0.0069
     58 C         -15.9736    7.4932    0.8202 C.ar    1  LIG1        0.1254
     59 H         -13.9334    7.0478    1.3218 H       1  LIG1        0.0662
     60 O         -14.3494    9.7625   -2.2662 O.3     1  LIG1       -0.5061
     61 H         -15.0260    9.9755   -2.9175 H       1  LIG1        0.2922
     62 O         -16.5352    6.7460    1.8115 O.3     1  LIG1       -0.5061
     63 H         -15.8528    6.3530    2.3656 H       1  LIG1        0.2922
     64 C         -19.0486    9.3385    0.3768 C.ar    1  LIG1       -0.0419
     65 C         -20.4333    9.2269    0.4799 C.ar    1  LIG1       -0.0473
     66 C         -18.3122    8.1668    0.1598 C.ar    1  LIG1       -0.0111
     67 C         -21.0782    7.9929    0.3960 C.ar    1  LIG1        0.0218
     68 H         -21.0220   10.1241    0.6321 H       1  LIG1        0.0627
     69 C         -18.9637    6.9319    0.0962 C.ar    1  LIG1       -0.0501
     70 C         -20.3437    6.8079    0.2124 C.ar    1  LIG1       -0.0392
     71 H         -18.3623    6.0407   -0.0366 H       1  LIG1        0.0627
     72 C         -18.3999   10.7045    0.5256 C.3     1  LIG1       -0.0391
     73 H         -19.0283   11.3379    1.1510 H       1  LIG1        0.0278
     74 H         -18.2827   11.1921   -0.4445 H       1  LIG1        0.0278
     75 H         -17.4165   10.6131    0.9852 H       1  LIG1        0.0278
     76 C         -20.9830    5.4289    0.1729 C.3     1  LIG1       -0.0390
     77 H         -20.2063    4.6718    0.2659 H       1  LIG1        0.0278
     78 H         -21.5210    5.2612   -0.7612 H       1  LIG1        0.0278
     79 H         -21.6891    5.3083    0.9955 H       1  LIG1        0.0278
     80 C         -22.5430    7.9761    0.5280 C.ar    1  LIG1        0.1545
     81 C         -23.4306    8.7378    1.2292 C.ar    1  LIG1        0.1134
     82 C         -24.7572    8.2543    0.9143 C.ar    1  LIG1        0.0885
     83 C         -24.5761    7.2133    0.0497 C.ar    1  LIG1        0.1574
     84 O         -23.2449    7.0613   -0.1770 O.2     1  LIG1       -0.4521
     85 N         -22.8699   10.6888    2.8210 N.1     1  LIG1       -0.1907
     86 C         -23.1195    9.8151    2.1201 C.1     1  LIG1        0.1042
     87 C         -25.9792    8.7968    1.4180 C.1     1  LIG1       -0.0645
     88 C         -26.9907    9.2759    1.8543 C.1     1  LIG1       -0.1138
     89 H         -27.8819    9.7141    2.2421 H       1  LIG1        0.1232
     90 C         -25.1241    5.5619   -1.7820 C.ar    1  LIG1        0.2233
     91 C         -25.4897    6.2825   -0.6193 C.ar    1  LIG1        0.0798
     92 C         -26.7719    6.0789   -0.1097 C.ar    1  LIG1       -0.0445
     93 C         -27.6357    5.2017   -0.7486 C.ar    1  LIG1       -0.0427
     94 C         -27.1673    4.5473   -1.8829 C.ar    1  LIG1        0.0314
     95 N         -25.9481    4.7223   -2.3824 N.ar    1  LIG1       -0.2209
     96 H         -27.0749    6.6066    0.7847 H       1  LIG1        0.0627
     97 H         -27.7986    3.8467   -2.4162 H       1  LIG1        0.0831
     98 O         -23.9199    5.6734   -2.3663 O.3     1  LIG1       -0.4919
     99 H         -23.3575    6.3044   -1.9033 H       1  LIG1        0.2937
    100 H         -28.6334    5.0230   -0.3769 H       1  LIG1        0.0633
@<TRIPOS>BOND
     1    11    10    1
     2    28    27    1
     3    61    60    1
     4    10     9    3
     5    29    27    1
     6    27    20    1
     7    97    94    1
     8    95    94   ar
     9    95    90   ar
    10    98    99    1
    11    98    90    1
    12    60    52    1
    13    23    19    1
    14     9     1    1
    15    94    93   ar
    16    90    91   ar
    17    50    49    1
    18    56    53    1
    19    20    19   ar
    20    20    21   ar
    21    19    18   ar
    22    52    53   ar
    23    52    54   ar
    24    48    47    1
    25    47    42    1
    26    53    55   ar
    27    49    43    1
    28    49    51    1
    29     6     1   ar
    30     6     5   ar
    31    40    33    1
    32     1     2   ar
    33    42    43   ar
    34    42    41   ar
    35    43    44   ar
    36    36    32    1
    37    78    76    1
    38    93   100    1
    39    93    92   ar
    40    33    32   ar
    41    33    34   ar
    42    32    31   ar
    43    91    92   ar
    44    91    83    1
    45    41    34    1
    46    41    45   ar
    47    44    45   ar
    48    44    54    1
    49    34    35   ar
    50    74    72    1
    51    45    46    1
    52    31    21    1
    53    31    30   ar
    54    54    57   ar
    55    21    22   ar
    56    35    30   ar
    57    30    37    1
    58    84    83   ar
    59    84    80   ar
    60    92    96    1
    61    18     5    1
    62    18    17   ar
    63    71    69    1
    64    55    66    1
    65    55    58   ar
    66    37    38    3
    67    83    82   ar
    68     5     4   ar
    69    69    66   ar
    70    69    70   ar
    71    38    39    1
    72    66    64   ar
    73    76    70    1
    74    76    77    1
    75    76    79    1
    76    70    67   ar
    77     2     8    1
    78     2     3   ar
    79    64    65   ar
    80    64    72    1
    81    67    65   ar
    82    67    80    1
    83    65    68    1
    84    72    75    1
    85    72    73    1
    86    80    81   ar
    87    57    58   ar
    88    57    59    1
    89    22    17   ar
    90    58    62    1
    91    82    81   ar
    92    82    87    1
    93    17    24    1
    94     4     3   ar
    95     4    12    1
    96    81    86    1
    97     3     7    1
    98    87    88    3
    99    62    63    1
   100    88    89    1
   101    12    13    1
   102    86    85    3
   103    24    25    3
   104    25    26    1
   105    16    13    1
   106    13    15    1
   107    13    14    1
