@<TRIPOS>MOLECULE
mol_data/opt/m06hf/geoms/mol2/6el6el-.out
 32 33 0 0 0
SMALL
GASTEIGER

@<TRIPOS>ATOM
      1 C          -4.4833   -2.0700    0.5043 C.ar    1  LIG1        0.1141
      2 C          -3.1750   -2.1669    0.0375 C.ar    1  LIG1       -0.0243
      3 C          -2.5526   -1.0298   -0.4667 C.ar    1  LIG1       -0.0152
      4 C          -3.2627    0.1651   -0.4777 C.ar    1  LIG1        0.1461
      5 C          -4.5613    0.1789    0.0714 C.ar    1  LIG1        0.1166
      6 N          -5.1551   -0.9139    0.5199 N.ar    1  LIG1       -0.2347
      7 H          -1.5464   -1.0864   -0.8576 H       1  LIG1        0.0656
      8 H          -2.6672   -3.1202    0.0596 H       1  LIG1        0.0646
      9 C          -5.1612   -3.2489    1.0059 C.1     1  LIG1       -0.0498
     10 C          -5.6948   -4.2452    1.4107 C.1     1  LIG1       -0.1124
     11 H          -6.1791   -5.1219    1.7731 H       1  LIG1        0.1232
     12 O          -2.8173    1.3194   -1.0065 O.3     1  LIG1       -0.4930
     13 C          -1.4220    1.4714   -1.1989 C.3     1  LIG1        0.0789
     14 H          -1.2719    2.5187   -1.4443 H       1  LIG1        0.0660
     15 H          -0.8875    1.2243   -0.2788 H       1  LIG1        0.0660
     16 H          -1.0748    0.8435   -2.0229 H       1  LIG1        0.0660
     17 C          -4.8482    2.6242    0.7158 C.ar    1  LIG1        0.1226
     18 C          -5.3461    1.4474    0.1234 C.ar    1  LIG1        0.0412
     19 C          -6.6335    1.4645   -0.3827 C.ar    1  LIG1       -0.0065
     20 C          -7.3727    2.6456   -0.3289 C.ar    1  LIG1        0.1388
     21 C          -6.7799    3.7710    0.2472 C.ar    1  LIG1        0.0706
     22 N          -5.5545    3.7473    0.7647 N.ar    1  LIG1       -0.2424
     23 H          -7.0726    0.5748   -0.8144 H       1  LIG1        0.0662
     24 H          -7.3006    4.7169    0.3110 H       1  LIG1        0.0867
     25 C          -3.5503    2.6477    1.3664 C.1     1  LIG1       -0.0491
     26 C          -2.4970    2.6674    1.9439 C.1     1  LIG1       -0.1124
     27 H          -1.5736    2.6976    2.4739 H       1  LIG1        0.1232
     28 O          -8.6205    2.6138   -0.8464 O.3     1  LIG1       -0.4936
     29 C          -9.3864    3.8047   -0.8047 C.3     1  LIG1        0.0789
     30 H         -10.3418    3.5575   -1.2580 H       1  LIG1        0.0660
     31 H          -9.5393    4.1286    0.2277 H       1  LIG1        0.0660
     32 H          -8.8980    4.5975   -1.3766 H       1  LIG1        0.0660
@<TRIPOS>BOND
     1    16    13    1
     2    14    13    1
     3    32    29    1
     4    30    29    1
     5    13    12    1
     6    13    15    1
     7    12     4    1
     8     7     3    1
     9    28    29    1
    10    28    20    1
    11    23    19    1
    12    29    31    1
    13     4     3   ar
    14     4     5   ar
    15     3     2   ar
    16    19    20   ar
    17    19    18   ar
    18    20    21   ar
    19     2     8    1
    20     2     1   ar
    21     5    18    1
    22     5     6   ar
    23    18    17   ar
    24    21    24    1
    25    21    22   ar
    26     1     6   ar
    27     1     9    1
    28    17    22   ar
    29    17    25    1
    30     9    10    3
    31    25    26    3
    32    10    11    1
    33    26    27    1
