@<TRIPOS>MOLECULE
mol_data/opt/m06hf/geoms/mol2/6el6fi4dh12if.out
 54 57 0 0 0
SMALL
GASTEIGER

@<TRIPOS>ATOM
      1 C          -4.4544   -2.2442   -0.2145 C.ar    1  LIG1        0.1141
      2 C          -3.0697   -2.3016   -0.2561 C.ar    1  LIG1       -0.0243
      3 C          -2.3591   -1.1055   -0.2131 C.ar    1  LIG1       -0.0152
      4 C          -3.0404    0.1012   -0.1140 C.ar    1  LIG1        0.1462
      5 C          -4.4601    0.0836   -0.0407 C.ar    1  LIG1        0.1189
      6 N          -5.1010   -1.0798   -0.1089 N.ar    1  LIG1       -0.2346
      7 H          -1.2799   -1.1243   -0.2651 H       1  LIG1        0.0656
      8 H          -2.5680   -3.2547   -0.3349 H       1  LIG1        0.0646
      9 C          -5.2544   -3.4471   -0.2914 C.1     1  LIG1       -0.0498
     10 C          -5.9049   -4.4535   -0.3618 C.1     1  LIG1       -0.1124
     11 H          -6.4914   -5.3410   -0.4260 H       1  LIG1        0.1232
     12 O          -2.4228    1.2984   -0.1009 O.3     1  LIG1       -0.4930
     13 C          -1.0236    1.3483   -0.3308 C.3     1  LIG1        0.0789
     14 H          -0.7709    2.4041   -0.3543 H       1  LIG1        0.0660
     15 H          -0.4825    0.8546    0.4794 H       1  LIG1        0.0660
     16 H          -0.7799    0.8856   -1.2894 H       1  LIG1        0.0660
     17 C          -6.6964    1.2410   -0.2680 C.ar    1  LIG1        0.2224
     18 C          -5.3102    1.3010    0.0661 C.ar    1  LIG1        0.0656
     19 C          -4.8386    2.5294    0.5175 C.ar    1  LIG1       -0.0424
     20 C          -5.6482    3.6653    0.5591 C.ar    1  LIG1       -0.0236
     21 C          -6.9515    3.5001    0.0850 C.ar    1  LIG1        0.0790
     22 N          -7.4566    2.3202   -0.2754 N.ar    1  LIG1       -0.2122
     23 H          -3.8158    2.6120    0.8549 H       1  LIG1        0.0629
     24 O          -7.3044    0.1047   -0.5878 O.3     1  LIG1       -0.4919
     25 H          -6.6606   -0.6348   -0.4294 H       1  LIG1        0.2937
     26 C          -5.0966    4.9530    1.1441 C.3     1  LIG1       -0.0377
     27 H          -5.9029    5.6348    1.4132 H       1  LIG1        0.0278
     28 H          -4.4428    5.4533    0.4291 H       1  LIG1        0.0278
     29 H          -4.5274    4.7200    2.0451 H       1  LIG1        0.0278
     30 C          -7.6549    5.8299   -0.6766 C.ar    1  LIG1        0.0617
     31 C          -8.6291    6.8247   -0.7494 C.ar    1  LIG1       -0.0313
     32 C          -7.9341    4.6293   -0.0042 C.ar    1  LIG1        0.0198
     33 C          -9.8756    6.6597   -0.1581 C.ar    1  LIG1        0.0395
     34 H          -8.4214    7.7326   -1.3008 H       1  LIG1        0.0638
     35 C          -9.1898    4.4453    0.5491 C.ar    1  LIG1       -0.0299
     36 C         -10.1789    5.4400    0.4931 C.ar    1  LIG1        0.0360
     37 H          -9.4062    3.4960    1.0232 H       1  LIG1        0.0643
     38 N          -5.4180    6.2356   -1.9249 N.1     1  LIG1       -0.1908
     39 C          -6.4028    6.0373   -1.3676 C.1     1  LIG1        0.0998
     40 N         -11.3895    5.2399    1.0980 N.pl3   1  LIG1       -0.3574
     41 H         -12.1613    5.8191    0.8066 H       1  LIG1        0.1423
     42 H         -11.6167    4.2993    1.3772 H       1  LIG1        0.1423
     43 C         -10.8447    7.7676   -0.2149 C.ar    1  LIG1        0.1431
     44 C         -10.6886    9.1094   -0.0621 C.ar    1  LIG1        0.0368
     45 C         -12.0036    9.6621   -0.2650 C.ar    1  LIG1        0.1580
     46 C         -12.8461    8.6322   -0.5088 C.ar    1  LIG1        0.1341
     47 O         -12.1438    7.4673   -0.4807 O.2     1  LIG1       -0.4589
     48 H         -13.8999    8.5646   -0.7116 H       1  LIG1        0.1068
     49 C          -9.4599    9.9076    0.2834 C.3     1  LIG1       -0.0326
     50 H          -9.7301   10.6935    0.9885 H       1  LIG1        0.0280
     51 H          -9.0423   10.3792   -0.6079 H       1  LIG1        0.0280
     52 H          -8.7058    9.2627    0.7332 H       1  LIG1        0.0280
     53 O         -12.2352   10.9982   -0.1855 O.3     1  LIG1       -0.5034
     54 H         -13.1655   11.1939   -0.3378 H       1  LIG1        0.2923
@<TRIPOS>BOND
     1    38    39    3
     2    39    30    1
     3    34    31    1
     4    16    13    1
     5    31    30   ar
     6    31    33   ar
     7    48    46    1
     8    30    32   ar
     9    51    49    1
    10    24    25    1
    11    24    17    1
    12    46    47   ar
    13    46    45   ar
    14    47    43   ar
    15    11    10    1
    16    10     9    3
    17    14    13    1
    18    54    53    1
    19     8     2    1
    20    13    12    1
    21    13    15    1
    22     9     1    1
    23    22    17   ar
    24    22    21   ar
    25    17    18   ar
    26     7     3    1
    27    45    53    1
    28    45    44   ar
    29     2     1   ar
    30     2     3   ar
    31    43    33    1
    32    43    44   ar
    33     1     6   ar
    34     3     4   ar
    35    33    36   ar
    36     4    12    1
    37     4     5   ar
    38     6     5   ar
    39    44    49    1
    40     5    18    1
    41    32    21    1
    42    32    35   ar
    43    18    19   ar
    44    21    20   ar
    45    49    52    1
    46    49    50    1
    47    28    26    1
    48    36    35   ar
    49    36    40    1
    50    19    20   ar
    51    19    23    1
    52    35    37    1
    53    20    26    1
    54    41    40    1
    55    40    42    1
    56    26    27    1
    57    26    29    1
