@<TRIPOS>MOLECULE
mol_data/opt/m06hf/geoms/mol2/6fa12fe-13ef4fi-13el4fe13fe6il-.out
 101 108 0 0 0
SMALL
GASTEIGER

@<TRIPOS>ATOM
      1 C          -5.0900    0.4222    3.8703 C.ar    1  LIG1        0.2129
      2 C          -3.9808    0.8672    4.6018 C.ar    1  LIG1       -0.0001
      3 C          -3.4291    2.0899    4.2498 C.ar    1  LIG1       -0.0546
      4 C          -3.9773    2.8226    3.2034 C.ar    1  LIG1       -0.0323
      5 C          -5.0825    2.2744    2.5497 C.ar    1  LIG1        0.1135
      6 N          -5.6277    1.1005    2.8773 N.ar    1  LIG1       -0.2098
      7 H          -2.5714    2.4698    4.7898 H       1  LIG1        0.0620
      8 H          -3.5740    0.2746    5.4105 H       1  LIG1        0.0671
      9 O          -5.6950   -0.7578    4.1420 O.3     1  LIG1       -0.4924
     10 H          -5.2620   -1.1960    4.8815 H       1  LIG1        0.2937
     11 H          -3.5799    3.7784    2.8949 H       1  LIG1        0.0640
     12 C          -5.7157    2.9965    1.4444 C.ar    1  LIG1        0.1964
     13 C          -5.5093    4.2240    0.8949 C.ar    1  LIG1        0.1806
     14 C          -6.4799    4.3936   -0.1549 C.ar    1  LIG1        0.1140
     15 C          -7.2018    3.2285   -0.1694 C.ar    1  LIG1        0.1722
     16 O          -6.7447    2.4009    0.7829 O.2     1  LIG1       -0.4467
     17 O          -4.5893    5.1411    1.2592 O.3     1  LIG1       -0.5023
     18 H          -4.7157    5.9346    0.7208 H       1  LIG1        0.2923
     19 C          -6.6075    5.6243   -0.8656 C.1     1  LIG1       -0.0621
     20 C          -6.6306    6.7136   -1.3747 C.1     1  LIG1       -0.1137
     21 H          -6.6890    7.6666   -1.8474 H       1  LIG1        0.1232
     22 C          -8.3312    2.7154   -0.9205 C.ar    1  LIG1        0.1031
     23 C          -8.8826    3.0361   -2.1558 C.ar    1  LIG1        0.0949
     24 C          -9.9960    2.1683   -2.3354 C.ar    1  LIG1        0.1582
     25 C         -10.0838    1.3466   -1.2228 C.ar    1  LIG1        0.0938
     26 N          -9.0585    1.7046   -0.3848 N.ar    1  LIG1       -0.3477
     27 H          -8.8963    1.3334    0.5407 H       1  LIG1        0.1661
     28 C          -8.3939    3.9641   -3.1257 C.1     1  LIG1       -0.0637
     29 C          -7.9854    4.7210   -3.9647 C.1     1  LIG1       -0.1137
     30 H          -7.6160    5.3850   -4.7105 H       1  LIG1        0.1232
     31 O         -10.7511    2.1518   -3.4536 O.3     1  LIG1       -0.5035
     32 H         -11.6497    1.8826   -3.2064 H       1  LIG1        0.2923
     33 C         -12.3220    0.2152   -1.2621 C.ar    1  LIG1        0.1267
     34 C         -13.1362   -0.8615   -0.9520 C.ar    1  LIG1       -0.0101
     35 C         -10.9699    0.2183   -0.9043 C.ar    1  LIG1        0.0436
     36 C         -12.6334   -1.9552   -0.2438 C.ar    1  LIG1        0.0060
     37 H         -14.1795   -0.8576   -1.2464 H       1  LIG1        0.0661
     38 C         -10.4868   -0.8892   -0.2022 C.ar    1  LIG1       -0.0455
     39 C         -11.2877   -1.9716    0.1549 C.ar    1  LIG1       -0.0405
     40 H          -9.4368   -0.9098    0.0681 H       1  LIG1        0.0628
     41 O         -12.8143    1.3088   -1.9303 O.3     1  LIG1       -0.5061
     42 H         -13.7755    1.2728   -1.9838 H       1  LIG1        0.2922
     43 C         -10.6831   -3.1011    0.9742 C.3     1  LIG1       -0.0391
     44 H          -9.8311   -2.7242    1.5387 H       1  LIG1        0.0278
     45 H         -10.3192   -3.9096    0.3335 H       1  LIG1        0.0278
     46 H         -11.4150   -3.5060    1.6732 H       1  LIG1        0.0278
     47 C         -13.5704   -3.0559    0.0624 C.ar    1  LIG1        0.0665
     48 C         -14.8882   -3.0035    0.5006 C.ar    1  LIG1        0.0921
     49 C         -15.3349   -4.3536    0.6338 C.ar    1  LIG1        0.1613
     50 C         -14.2996   -5.1788    0.2620 C.ar    1  LIG1        0.0940
     51 N         -13.2451   -4.3684   -0.0749 N.ar    1  LIG1       -0.3501
     52 H         -12.3430   -4.7069   -0.3720 H       1  LIG1        0.1660
     53 C         -15.6527   -1.8311    0.7991 C.1     1  LIG1       -0.0638
     54 C         -16.3134   -0.8554    1.0417 C.1     1  LIG1       -0.1137
     55 H         -16.8949    0.0032    1.2840 H       1  LIG1        0.1232
     56 O         -16.5637   -4.7650    1.0361 O.3     1  LIG1       -0.4917
     57 C         -17.5767   -4.5589    0.0530 C.3     1  LIG1        0.0789
     58 H         -18.5008   -4.9365    0.4839 H       1  LIG1        0.0660
     59 H         -17.6754   -3.4957   -0.1728 H       1  LIG1        0.0660
     60 H         -17.3299   -5.1136   -0.8550 H       1  LIG1        0.0660
     61 C         -14.6036   -7.4574    1.2500 C.ar    1  LIG1        0.1268
     62 C         -14.5452   -8.8417    1.1485 C.ar    1  LIG1       -0.0091
     63 C         -14.2343   -6.6464    0.1642 C.ar    1  LIG1        0.0445
     64 C         -14.1107   -9.4737   -0.0223 C.ar    1  LIG1        0.0208
     65 H         -14.8267   -9.4501    1.9986 H       1  LIG1        0.0661
     66 C         -13.8021   -7.2708   -0.9965 C.ar    1  LIG1       -0.0330
     67 C         -13.7276   -8.6642   -1.1111 C.ar    1  LIG1        0.0347
     68 H         -13.5353   -6.6684   -1.8562 H       1  LIG1        0.0638
     69 O         -14.9811   -6.8401    2.3874 O.3     1  LIG1       -0.5061
     70 H         -15.2593   -7.4807    3.0509 H       1  LIG1        0.2922
     71 C         -13.2821   -9.1777   -2.3863 C.1     1  LIG1       -0.0690
     72 C         -12.9115   -9.5374   -3.4754 C.1     1  LIG1       -0.1139
     73 H         -12.5990   -9.8411   -4.4488 H       1  LIG1        0.1232
     74 C         -14.0729  -10.9416   -0.0372 C.ar    1  LIG1        0.0915
     75 C         -14.5385  -11.8517    0.8965 C.ar    1  LIG1        0.1580
     76 C         -14.2542  -13.1597    0.4285 C.ar    1  LIG1        0.0919
     77 C         -13.6055  -13.0171   -0.7961 C.ar    1  LIG1        0.0680
     78 N         -13.5115  -11.6959   -1.0446 N.ar    1  LIG1       -0.3502
     79 H         -13.1468  -11.2960   -1.8993 H       1  LIG1        0.1660
     80 O         -15.1564  -11.5648    2.0707 O.3     1  LIG1       -0.5035
     81 H         -15.3919  -12.3961    2.5035 H       1  LIG1        0.2923
     82 C         -14.5827  -14.3459    1.1553 C.1     1  LIG1       -0.0639
     83 C         -14.8956  -15.3020    1.8181 C.1     1  LIG1       -0.1137
     84 H         -15.1512  -16.1562    2.4021 H       1  LIG1        0.1232
     85 C         -11.9201  -13.9385   -2.4321 C.ar    1  LIG1        0.0476
     86 C         -13.1193  -14.0582   -1.7199 C.ar    1  LIG1        0.0241
     87 C         -13.8941  -15.2160   -1.8651 C.ar    1  LIG1       -0.0076
     88 C         -13.4487  -16.2113   -2.7196 C.ar    1  LIG1        0.1387
     89 C         -12.2508  -15.9960   -3.4134 C.ar    1  LIG1        0.0695
     90 N         -11.5214  -14.9047   -3.2684 N.ar    1  LIG1       -0.2559
     91 H         -14.8187  -15.3033   -1.3111 H       1  LIG1        0.0662
     92 H         -11.8969  -16.7605   -4.0946 H       1  LIG1        0.0867
     93 C         -10.9776  -12.7570   -2.2985 C.3     1  LIG1       -0.0217
     94 H         -10.9353  -12.3997   -1.2695 H       1  LIG1        0.0293
     95 H         -11.2808  -11.9276   -2.9441 H       1  LIG1        0.0293
     96 H          -9.9928  -13.0895   -2.6185 H       1  LIG1        0.0293
     97 O         -14.0816  -17.3847   -2.9517 O.3     1  LIG1       -0.4936
     98 C         -15.2839  -17.6245   -2.2426 C.3     1  LIG1        0.0789
     99 H         -15.6116  -18.6170   -2.5390 H       1  LIG1        0.0660
    100 H         -15.1058  -17.5958   -1.1643 H       1  LIG1        0.0660
    101 H         -16.0435  -16.8867   -2.5127 H       1  LIG1        0.0660
@<TRIPOS>BOND
     1    30    29    1
     2    73    72    1
     3    92    89    1
     4    29    28    3
     5    72    71    3
     6    31    32    1
     7    31    24    1
     8    89    90   ar
     9    89    88   ar
    10    90    85   ar
    11    28    23    1
    12    97    88    1
    13    97    98    1
    14    95    93    1
    15    88    87   ar
    16    96    93    1
    17    99    98    1
    18   101    98    1
    19    85    93    1
    20    85    86   ar
    21    71    67    1
    22    24    23   ar
    23    24    25   ar
    24    93    94    1
    25    98   100    1
    26    23    22   ar
    27    42    41    1
    28    41    33    1
    29    79    78    1
    30    87    86   ar
    31    87    91    1
    32    68    66    1
    33    21    20    1
    34    86    77    1
    35    20    19    3
    36    33    34   ar
    37    33    35   ar
    38    37    34    1
    39    25    35    1
    40    25    26   ar
    41    67    66   ar
    42    67    64   ar
    43    78    77   ar
    44    78    74   ar
    45    66    63   ar
    46    34    36   ar
    47    22    26   ar
    48    22    15    1
    49    35    38   ar
    50    19    14    1
    51    60    57    1
    52    77    76   ar
    53    26    27    1
    54    52    51    1
    55    36    47    1
    56    36    39   ar
    57    38    40    1
    58    38    39   ar
    59    59    57    1
    60    15    14   ar
    61    15    16   ar
    62    14    13   ar
    63    51    47   ar
    64    51    50   ar
    65    74    64    1
    66    74    75   ar
    67    64    62   ar
    68    57    58    1
    69    57    56    1
    70    47    48   ar
    71    39    43    1
    72    63    50    1
    73    63    61   ar
    74    50    49   ar
    75    45    43    1
    76    76    75   ar
    77    76    82    1
    78    48    49   ar
    79    48    53    1
    80    49    56    1
    81    18    17    1
    82    16    12   ar
    83    53    54    3
    84    13    17    1
    85    13    12   ar
    86    75    80    1
    87    43    44    1
    88    43    46    1
    89    54    55    1
    90    62    61   ar
    91    62    65    1
    92    82    83    3
    93    61    69    1
    94    12     5    1
    95    83    84    1
    96    80    81    1
    97    69    70    1
    98     5     6   ar
    99     5     4   ar
   100     6     1   ar
   101    11     4    1
   102     4     3   ar
   103     1     9    1
   104     1     2   ar
   105     9    10    1
   106     3     2   ar
   107     3     7    1
   108     2     8    1
