@<TRIPOS>MOLECULE
mol_data/opt/m06hf/geoms/mol2/6fa4ef6fl-4fe-.out
 52 55 0 0 0
SMALL
GASTEIGER

@<TRIPOS>ATOM
      1 C          -4.2574   -2.2580   -0.2727 C.ar    1  LIG1        0.2128
      2 C          -2.8687   -2.2998   -0.0819 C.ar    1  LIG1       -0.0001
      3 C          -2.2209   -1.0989    0.1456 C.ar    1  LIG1       -0.0547
      4 C          -2.9449    0.0926    0.1595 C.ar    1  LIG1       -0.0354
      5 C          -4.3163    0.0206   -0.0672 C.ar    1  LIG1        0.0761
      6 N          -4.9511   -1.1406   -0.2623 N.ar    1  LIG1       -0.2130
      7 H          -1.1524   -1.0860    0.3174 H       1  LIG1        0.0620
      8 H          -2.3327   -3.2396   -0.1015 H       1  LIG1        0.0671
      9 O          -4.9860   -3.3772   -0.4799 O.3     1  LIG1       -0.4924
     10 H          -4.4205   -4.1562   -0.4891 H       1  LIG1        0.2937
     11 H          -2.4628    1.0390    0.3455 H       1  LIG1        0.0639
     12 C          -4.8103    2.5218   -0.4106 C.ar    1  LIG1        0.0346
     13 C          -5.7409    3.5652   -0.3534 C.ar    1  LIG1       -0.0343
     14 C          -5.2096    1.2234   -0.0529 C.ar    1  LIG1        0.0193
     15 C          -7.0601    3.3722    0.0469 C.ar    1  LIG1        0.0299
     16 H          -5.4271    4.5544   -0.6601 H       1  LIG1        0.0637
     17 C          -6.5349    1.0154    0.3228 C.ar    1  LIG1       -0.0092
     18 C          -7.4387    2.0651    0.3764 C.ar    1  LIG1        0.1254
     19 H          -6.8426    0.0037    0.5618 H       1  LIG1        0.0661
     20 C          -3.4926    2.8519   -0.9048 C.1     1  LIG1       -0.0690
     21 C          -2.4226    3.1966   -1.3327 C.1     1  LIG1       -0.1139
     22 H          -1.4764    3.4936   -1.7229 H       1  LIG1        0.1232
     23 O          -8.7376    1.8591    0.7581 O.3     1  LIG1       -0.5061
     24 H          -8.8863    0.9357    0.9917 H       1  LIG1        0.2922
     25 C          -9.2508    4.5828   -0.4791 C.ar    1  LIG1        0.2211
     26 C          -7.9774    4.5452    0.1249 C.ar    1  LIG1        0.0505
     27 C          -7.5387    5.7052    0.7598 C.ar    1  LIG1       -0.0049
     28 C          -8.3202    6.8542    0.7351 C.ar    1  LIG1        0.1469
     29 C          -9.5207    6.8109    0.0197 C.ar    1  LIG1        0.1198
     30 N          -9.9732    5.6869   -0.5299 N.ar    1  LIG1       -0.2087
     31 H          -6.5941    5.6953    1.2898 H       1  LIG1        0.0662
     32 O          -9.7833    3.5080   -1.0955 O.3     1  LIG1       -0.4920
     33 H          -9.5827    2.7119   -0.5791 H       1  LIG1        0.2937
     34 O          -8.0024    7.9919    1.4092 O.3     1  LIG1       -0.4929
     35 C          -6.6676    8.4554    1.2699 C.3     1  LIG1        0.0789
     36 H          -6.6694    9.4842    1.6221 H       1  LIG1        0.0660
     37 H          -5.9824    7.8649    1.8830 H       1  LIG1        0.0660
     38 H          -6.3678    8.4190    0.2218 H       1  LIG1        0.0660
     39 C          -9.8879    9.2481   -0.5420 C.ar    1  LIG1        0.1262
     40 C         -10.7395   10.3447   -0.6760 C.ar    1  LIG1       -0.0184
     41 C         -10.3913    8.0155   -0.1089 C.ar    1  LIG1        0.0466
     42 C         -12.0926   10.2176   -0.3988 C.ar    1  LIG1       -0.0429
     43 H         -10.3397   11.2960   -1.0081 H       1  LIG1        0.0655
     44 C         -11.7534    7.8934    0.1400 C.ar    1  LIG1       -0.0335
     45 C         -12.6132    8.9862    0.0065 C.ar    1  LIG1        0.0255
     46 H         -12.1435    6.9280    0.4331 H       1  LIG1        0.0637
     47 H         -12.7536   11.0670   -0.5043 H       1  LIG1        0.0631
     48 O          -8.5699    9.3343   -0.8655 O.3     1  LIG1       -0.5061
     49 H          -8.3825   10.1905   -1.2642 H       1  LIG1        0.2922
     50 C         -14.0232    8.8437    0.2830 C.1     1  LIG1       -0.0696
     51 C         -15.1970    8.7239    0.5116 C.1     1  LIG1       -0.1139
     52 H         -16.2364    8.6100    0.7136 H       1  LIG1        0.1232
@<TRIPOS>BOND
     1    22    21    1
     2    21    20    3
     3    49    48    1
     4    32    33    1
     5    32    25    1
     6    43    40    1
     7    20    12    1
     8    48    39    1
     9    40    39   ar
    10    40    42   ar
    11    16    13    1
    12    39    41   ar
    13    30    25   ar
    14    30    29   ar
    15    47    42    1
    16    10     9    1
    17     9     1    1
    18    25    26   ar
    19    12    13   ar
    20    12    14   ar
    21    42    45   ar
    22    13    15   ar
    23     1     6   ar
    24     1     2   ar
    25     6     5   ar
    26    41    29    1
    27    41    44   ar
    28     8     2    1
    29     2     3   ar
    30     5    14    1
    31     5     4   ar
    32    14    17   ar
    33    45    44   ar
    34    45    50    1
    35    29    28   ar
    36    15    26    1
    37    15    18   ar
    38    26    27   ar
    39    44    46    1
    40     3     4   ar
    41     3     7    1
    42     4    11    1
    43    38    35    1
    44    50    51    3
    45    17    18   ar
    46    17    19    1
    47    18    23    1
    48    51    52    1
    49    28    27   ar
    50    28    34    1
    51    23    24    1
    52    27    31    1
    53    35    34    1
    54    35    36    1
    55    35    37    1
