@<TRIPOS>MOLECULE
mol_data/opt/m06hf/geoms/mol2/6fa6fa6fa.out
 32 34 0 0 0
SMALL
GASTEIGER

@<TRIPOS>ATOM
      1 C          -4.4495   -2.1495   -0.0002 C.ar    1  LIG1        0.2128
      2 C          -3.0533   -2.1979   -0.0002 C.ar    1  LIG1       -0.0001
      3 C          -2.3782   -0.9864   -0.0002 C.ar    1  LIG1       -0.0547
      4 C          -3.0789    0.2143   -0.0002 C.ar    1  LIG1       -0.0353
      5 C          -4.4749    0.1667   -0.0002 C.ar    1  LIG1        0.0799
      6 N          -5.1177   -1.0104   -0.0002 N.ar    1  LIG1       -0.2129
      7 H          -1.2960   -0.9768   -0.0002 H       1  LIG1        0.0620
      8 H          -2.5290   -3.1436   -0.0002 H       1  LIG1        0.0671
      9 O          -5.2244   -3.2479   -0.0001 O.3     1  LIG1       -0.4924
     10 H          -4.6935   -4.0514   -0.0001 H       1  LIG1        0.2937
     11 H          -2.5469    1.1520   -0.0002 H       1  LIG1        0.0639
     12 C          -6.7509    1.2669   -0.0001 C.ar    1  LIG1        0.2223
     13 C          -5.3360    1.3752   -0.0002 C.ar    1  LIG1        0.0618
     14 C          -4.8162    2.6687   -0.0003 C.ar    1  LIG1       -0.0454
     15 C          -5.6372    3.7826   -0.0003 C.ar    1  LIG1       -0.0347
     16 C          -7.0233    3.5831   -0.0002 C.ar    1  LIG1        0.0799
     17 N          -7.5267    2.3451   -0.0001 N.ar    1  LIG1       -0.2123
     18 H          -3.7449    2.8191   -0.0004 H       1  LIG1        0.0626
     19 O          -7.3828    0.1109    0.0000 O.3     1  LIG1       -0.4919
     20 H          -6.6915   -0.6156    0.0000 H       1  LIG1        0.2937
     21 H          -5.2042    4.7695   -0.0004 H       1  LIG1        0.0639
     22 C          -9.4119    4.4322    0.0001 C.ar    1  LIG1        0.2217
     23 C          -8.0099    4.6921   -0.0002 C.ar    1  LIG1        0.0618
     24 C          -7.6139    6.0291   -0.0004 C.ar    1  LIG1       -0.0460
     25 C          -8.5565    7.0444   -0.0004 C.ar    1  LIG1       -0.0427
     26 C          -9.8987    6.6688   -0.0000 C.ar    1  LIG1        0.0314
     27 N         -10.3137    5.4113    0.0002 N.ar    1  LIG1       -0.2209
     28 H          -6.5628    6.2845   -0.0007 H       1  LIG1        0.0626
     29 H         -10.6784    7.4222    0.0000 H       1  LIG1        0.0831
     30 O          -9.8999    3.2057    0.0003 O.3     1  LIG1       -0.4919
     31 H          -9.1294    2.5657    0.0001 H       1  LIG1        0.2937
     32 H          -8.2699    8.0853   -0.0006 H       1  LIG1        0.0633
@<TRIPOS>BOND
     1    28    24    1
     2    32    25    1
     3    18    14    1
     4    24    25   ar
     5    24    23   ar
     6    21    15    1
     7    25    26   ar
     8    14    15   ar
     9    14    13   ar
    10    15    16   ar
    11     7     3    1
    12    11     4    1
    13     4     3   ar
    14     4     5   ar
    15     3     2   ar
    16    13     5    1
    17    13    12   ar
    18    16    23    1
    19    16    17   ar
    20     5     6   ar
    21     2     8    1
    22     2     1   ar
    23    23    22   ar
    24     6     1   ar
    25     1     9    1
    26     9    10    1
    27    12    17   ar
    28    12    19    1
    29    26    29    1
    30    26    27   ar
    31    20    19    1
    32    22    27   ar
    33    22    30    1
    34    31    30    1
