@<TRIPOS>MOLECULE
mol_data/opt/m06hf/geoms/mol2/6fa6fa6fa-6fa.out
 42 45 0 0 0
SMALL
GASTEIGER

@<TRIPOS>ATOM
      1 C          -4.4955   -2.2435   -0.2304 C.ar    1  LIG1        0.2128
      2 C          -3.1174   -2.3630   -0.0383 C.ar    1  LIG1       -0.0001
      3 C          -2.4077   -1.1940    0.1932 C.ar    1  LIG1       -0.0547
      4 C          -3.0589    0.0335    0.2247 C.ar    1  LIG1       -0.0353
      5 C          -4.4398    0.0592    0.0159 C.ar    1  LIG1        0.0799
      6 N          -5.1164   -1.0787   -0.2023 N.ar    1  LIG1       -0.2129
      7 H          -1.3381   -1.2397    0.3519 H       1  LIG1        0.0620
      8 H          -2.6321   -3.3289   -0.0673 H       1  LIG1        0.0671
      9 O          -5.2992   -3.2979   -0.4604 O.3     1  LIG1       -0.4924
     10 H          -4.7999   -4.1213   -0.4660 H       1  LIG1        0.2937
     11 H          -2.5011    0.9371    0.4121 H       1  LIG1        0.0639
     12 C          -6.6614    1.2796   -0.1404 C.ar    1  LIG1        0.2223
     13 C          -5.2454    1.3074    0.0203 C.ar    1  LIG1        0.0618
     14 C          -4.6681    2.5624    0.1791 C.ar    1  LIG1       -0.0454
     15 C          -5.4348    3.7195    0.1893 C.ar    1  LIG1       -0.0347
     16 C          -6.8152    3.5763    0.0333 C.ar    1  LIG1        0.0799
     17 N          -7.3880    2.3844   -0.1260 N.ar    1  LIG1       -0.2123
     18 H          -3.5967    2.6571    0.2939 H       1  LIG1        0.0626
     19 O          -7.3327    0.1520   -0.3126 O.3     1  LIG1       -0.4919
     20 H          -6.6751   -0.5988   -0.3242 H       1  LIG1        0.2937
     21 H          -4.9835    4.6888    0.3106 H       1  LIG1        0.0639
     22 C          -7.4504    6.0750    0.2153 C.ar    1  LIG1        0.2223
     23 C          -7.7796    4.7197    0.0173 C.ar    1  LIG1        0.0618
     24 C          -9.1257    4.4600   -0.2174 C.ar    1  LIG1       -0.0454
     25 C         -10.0649    5.4876   -0.2344 C.ar    1  LIG1       -0.0347
     26 C          -9.6226    6.7892   -0.0002 C.ar    1  LIG1        0.0799
     27 N          -8.3296    7.0581    0.2094 N.ar    1  LIG1       -0.2123
     28 H          -9.4109    3.4307   -0.3931 H       1  LIG1        0.0626
     29 O          -6.1728    6.4445    0.4371 O.3     1  LIG1       -0.4919
     30 H          -6.1816    7.4023    0.5718 H       1  LIG1        0.2937
     31 H         -11.1029    5.2902   -0.4664 H       1  LIG1        0.0639
     32 C         -11.8461    7.9076    0.5186 C.ar    1  LIG1        0.2217
     33 C         -10.5441    7.9591   -0.0180 C.ar    1  LIG1        0.0618
     34 C         -10.1289    9.1662   -0.5686 C.ar    1  LIG1       -0.0460
     35 C         -11.0104   10.2390   -0.6269 C.ar    1  LIG1       -0.0427
     36 C         -12.2879   10.0507   -0.1118 C.ar    1  LIG1        0.0314
     37 N         -12.6920    8.9186    0.4602 N.ar    1  LIG1       -0.2209
     38 H          -9.1198    9.2369   -0.9538 H       1  LIG1        0.0626
     39 H         -13.0219   10.8467   -0.1491 H       1  LIG1        0.0831
     40 O         -12.3182    6.8086    1.1462 O.3     1  LIG1       -0.4919
     41 H         -11.5922    6.2147    1.3738 H       1  LIG1        0.2937
     42 H         -10.7238   11.1848   -1.0625 H       1  LIG1        0.0633
@<TRIPOS>BOND
     1    42    35    1
     2    38    34    1
     3    35    34   ar
     4    35    36   ar
     5    34    33   ar
     6    31    25    1
     7    10     9    1
     8     9     1    1
     9    28    24    1
    10    20    19    1
    11    19    12    1
    12    25    24   ar
    13    25    26   ar
    14     1     6   ar
    15     1     2   ar
    16    24    23   ar
    17     6     5   ar
    18    39    36    1
    19    12    17   ar
    20    12    13   ar
    21    17    16   ar
    22    36    37   ar
    23     8     2    1
    24     2     3   ar
    25    33    26    1
    26    33    32   ar
    27    26    27   ar
    28     5    13    1
    29     5     4   ar
    30    23    16    1
    31    23    22   ar
    32    13    14   ar
    33    16    15   ar
    34    14    15   ar
    35    14    18    1
    36    15    21    1
    37     3     4   ar
    38     3     7    1
    39    27    22   ar
    40    22    29    1
    41     4    11    1
    42    29    30    1
    43    37    32   ar
    44    32    40    1
    45    40    41    1
