@<TRIPOS>MOLECULE
mol_data/opt/m06hf/geoms/mol2/6fa6fa-6fa.out
 32 34 0 0 0
SMALL
GASTEIGER

@<TRIPOS>ATOM
      1 C          -4.4978   -2.1081   -0.2744 C.ar    1  LIG1        0.2128
      2 C          -3.1204   -2.2402   -0.0443 C.ar    1  LIG1       -0.0001
      3 C          -2.4124   -1.0839    0.2252 C.ar    1  LIG1       -0.0547
      4 C          -3.0631    0.1499    0.2598 C.ar    1  LIG1       -0.0353
      5 C          -4.4352    0.1659    0.0169 C.ar    1  LIG1        0.0799
      6 N          -5.1226   -0.9534   -0.2429 N.ar    1  LIG1       -0.2129
      7 H          -1.3470   -1.1344    0.4095 H       1  LIG1        0.0620
      8 H          -2.6395   -3.2090   -0.0772 H       1  LIG1        0.0671
      9 O          -5.2844   -3.1729   -0.5479 O.3     1  LIG1       -0.4924
     10 H          -4.7675   -3.9850   -0.5581 H       1  LIG1        0.2937
     11 H          -2.5268    1.0601    0.4663 H       1  LIG1        0.0639
     12 C          -4.8105    2.7100    0.2665 C.ar    1  LIG1        0.2223
     13 C          -5.2749    1.4046    0.0133 C.ar    1  LIG1        0.0618
     14 C          -6.6321    1.3006   -0.2719 C.ar    1  LIG1       -0.0454
     15 C          -7.4552    2.4233   -0.2835 C.ar    1  LIG1       -0.0347
     16 C          -6.8842    3.6626    0.0049 C.ar    1  LIG1        0.0799
     17 N          -5.5783    3.7823    0.2643 N.ar    1  LIG1       -0.2123
     18 H          -7.0237    0.3163   -0.4934 H       1  LIG1        0.0626
     19 O          -3.5093    2.9332    0.5395 O.3     1  LIG1       -0.4919
     20 H          -3.4194    3.8832    0.6987 H       1  LIG1        0.2937
     21 H          -8.4996    2.3457   -0.5536 H       1  LIG1        0.0639
     22 C          -8.9916    5.0026    0.4826 C.ar    1  LIG1        0.2217
     23 C          -7.6726    4.9261   -0.0071 C.ar    1  LIG1        0.0618
     24 C          -7.1080    6.0954   -0.5037 C.ar    1  LIG1       -0.0460
     25 C          -7.8648    7.2598   -0.5569 C.ar    1  LIG1       -0.0427
     26 C          -9.1736    7.1982   -0.0925 C.ar    1  LIG1        0.0314
     27 N          -9.7201    6.1013    0.4277 N.ar    1  LIG1       -0.2209
     28 H          -6.0835    6.0660   -0.8521 H       1  LIG1        0.0626
     29 H          -9.8149    8.0710   -0.1290 H       1  LIG1        0.0831
     30 O          -9.6036    3.9443    1.0579 O.3     1  LIG1       -0.4919
     31 H          -8.9546    3.2724    1.3007 H       1  LIG1        0.2937
     32 H          -7.4605    8.1806   -0.9507 H       1  LIG1        0.0633
@<TRIPOS>BOND
     1    32    25    1
     2    28    24    1
     3    10     9    1
     4    25    24   ar
     5    25    26   ar
     6    21    15    1
     7     9     1    1
     8    24    23   ar
     9    18    14    1
    10    15    14   ar
    11    15    16   ar
    12     1     6   ar
    13     1     2   ar
    14    14    13   ar
    15     6     5   ar
    16    29    26    1
    17    26    27   ar
    18     8     2    1
    19     2     3   ar
    20    23    16    1
    21    23    22   ar
    22    16    17   ar
    23    13     5    1
    24    13    12   ar
    25     5     4   ar
    26     3     4   ar
    27     3     7    1
    28     4    11    1
    29    17    12   ar
    30    12    19    1
    31    27    22   ar
    32    22    30    1
    33    19    20    1
    34    30    31    1
