@<TRIPOS>MOLECULE
mol_data/opt/m06hf/geoms/mol2/6fa6fa-6fa6fa-.out
 42 45 0 0 0
SMALL
GASTEIGER

@<TRIPOS>ATOM
      1 C          -4.5263   -2.2096   -0.3134 C.ar    1  LIG1        0.2128
      2 C          -3.1557   -2.3833   -0.0715 C.ar    1  LIG1       -0.0001
      3 C          -2.4174   -1.2508    0.2180 C.ar    1  LIG1       -0.0547
      4 C          -3.0341   -0.0001    0.2635 C.ar    1  LIG1       -0.0353
      5 C          -4.4036    0.0567    0.0122 C.ar    1  LIG1        0.0799
      6 N          -5.1193   -1.0385   -0.2718 N.ar    1  LIG1       -0.2129
      7 H          -1.3552   -1.3335    0.4087 H       1  LIG1        0.0620
      8 H          -2.7018   -3.3649   -0.1120 H       1  LIG1        0.0671
      9 O          -5.3391   -3.2488   -0.6087 O.3     1  LIG1       -0.4924
     10 H          -4.8459   -4.0754   -0.6169 H       1  LIG1        0.2937
     11 H          -2.4749    0.8924    0.4852 H       1  LIG1        0.0639
     12 C          -4.7417    2.5853    0.4183 C.ar    1  LIG1        0.2223
     13 C          -5.2071    1.3187    0.0141 C.ar    1  LIG1        0.0618
     14 C          -6.5301    1.2768   -0.4114 C.ar    1  LIG1       -0.0454
     15 C          -7.3210    2.4224   -0.4177 C.ar    1  LIG1       -0.0347
     16 C          -6.7561    3.6169    0.0301 C.ar    1  LIG1        0.0799
     17 N          -5.4811    3.6771    0.4283 N.ar    1  LIG1       -0.2123
     18 H          -6.9198    0.3232   -0.7429 H       1  LIG1        0.0626
     19 O          -3.4714    2.7403    0.8407 O.3     1  LIG1       -0.4919
     20 H          -3.3701    3.6696    1.0909 H       1  LIG1        0.2937
     21 H          -8.3323    2.3980   -0.8005 H       1  LIG1        0.0639
     22 C          -8.8794    4.9734    0.3881 C.ar    1  LIG1        0.2223
     23 C          -7.5139    4.8974    0.0462 C.ar    1  LIG1        0.0618
     24 C          -6.8876    6.0944   -0.2745 C.ar    1  LIG1       -0.0454
     25 C          -7.6044    7.2857   -0.3102 C.ar    1  LIG1       -0.0347
     26 C          -8.9654    7.2358   -0.0042 C.ar    1  LIG1        0.0799
     27 N          -9.5644    6.0931    0.3501 N.ar    1  LIG1       -0.2123
     28 H          -5.8315    6.0756   -0.5105 H       1  LIG1        0.0626
     29 O          -9.5820    3.8903    0.7904 O.3     1  LIG1       -0.4919
     30 H          -8.9822    3.1806    1.0514 H       1  LIG1        0.2937
     31 H          -7.1309    8.2158   -0.5744 H       1  LIG1        0.0639
     32 C          -9.4876    9.7434   -0.3011 C.ar    1  LIG1        0.2217
     33 C          -9.8796    8.4192   -0.0332 C.ar    1  LIG1        0.0618
     34 C         -11.2351    8.2300    0.2270 C.ar    1  LIG1       -0.0460
     35 C         -12.1212    9.3022    0.2087 C.ar    1  LIG1       -0.0427
     36 C         -11.6097   10.5603   -0.0728 C.ar    1  LIG1        0.0314
     37 N         -10.3177   10.7708   -0.3206 N.ar    1  LIG1       -0.2209
     38 H         -11.5648    7.2225    0.4443 H       1  LIG1        0.0626
     39 H         -12.2486   11.4343   -0.1031 H       1  LIG1        0.0831
     40 O          -8.1950   10.0409   -0.5552 O.3     1  LIG1       -0.4919
     41 H          -8.1592   10.9976   -0.6939 H       1  LIG1        0.2937
     42 H         -13.1737    9.1652    0.4078 H       1  LIG1        0.0633
@<TRIPOS>BOND
     1    21    15    1
     2    18    14    1
     3    41    40    1
     4    10     9    1
     5     9     1    1
     6    31    25    1
     7    40    32    1
     8    28    24    1
     9    15    14   ar
    10    15    16   ar
    11    14    13   ar
    12    37    32   ar
    13    37    36   ar
    14     1     6   ar
    15     1     2   ar
    16    25    24   ar
    17    25    26   ar
    18    32    33   ar
    19    24    23   ar
    20     6     5   ar
    21     8     2    1
    22    39    36    1
    23    36    35   ar
    24     2     3   ar
    25    33    26    1
    26    33    34   ar
    27    26    27   ar
    28     5    13    1
    29     5     4   ar
    30    13    12   ar
    31    16    23    1
    32    16    17   ar
    33    23    22   ar
    34    35    34   ar
    35    35    42    1
    36     3     4   ar
    37     3     7    1
    38    34    38    1
    39     4    11    1
    40    27    22   ar
    41    22    29    1
    42    12    17   ar
    43    12    19    1
    44    29    30    1
    45    19    20    1
