@<TRIPOS>MOLECULE
mol_data/opt/m06hf/geoms/mol2/6fa6la-12hi12ae-4fi13ll-4di-4ai.out
 103 110 0 0 0
SMALL
GASTEIGER

@<TRIPOS>ATOM
      1 C          -2.6620   -0.9000   -0.9683 C.ar    1  LIG1        0.2128
      2 C          -1.3354   -0.5261   -1.2338 C.ar    1  LIG1       -0.0001
      3 C          -1.0227    0.8202   -1.1718 C.ar    1  LIG1       -0.0547
      4 C          -2.0201    1.7404   -0.8555 C.ar    1  LIG1       -0.0353
      5 C          -3.3023    1.2549   -0.6062 C.ar    1  LIG1        0.0799
      6 N          -3.6126   -0.0422   -0.6620 N.ar    1  LIG1       -0.2129
      7 H          -0.0135    1.1530   -1.3759 H       1  LIG1        0.0620
      8 H          -0.5885   -1.2696   -1.4803 H       1  LIG1        0.0671
      9 O          -3.0513   -2.1953   -1.0028 O.3     1  LIG1       -0.4924
     10 H          -2.3085   -2.7644   -1.2277 H       1  LIG1        0.2937
     11 H          -1.8230    2.8019   -0.8187 H       1  LIG1        0.0639
     12 C          -5.6312    2.2258   -0.9028 C.ar    1  LIG1        0.2245
     13 C          -4.3917    2.1971   -0.2199 C.ar    1  LIG1        0.0620
     14 C          -4.2432    3.0798    0.8342 C.ar    1  LIG1       -0.0453
     15 C          -5.2858    3.9365    1.1963 C.ar    1  LIG1       -0.0317
     16 C          -6.4567    3.8785    0.4474 C.ar    1  LIG1        0.1117
     17 N          -6.6169    3.0365   -0.5840 N.ar    1  LIG1       -0.2092
     18 H          -3.3198    3.0725    1.4010 H       1  LIG1        0.0626
     19 O          -5.7827    1.4065   -1.9450 O.3     1  LIG1       -0.4792
     20 C          -7.0468    1.4287   -2.6039 C.3     1  LIG1        0.0804
     21 H          -6.9669    0.6851   -3.3913 H       1  LIG1        0.0660
     22 H          -7.8402    1.1735   -1.9029 H       1  LIG1        0.0660
     23 H          -7.2410    2.4182   -3.0163 H       1  LIG1        0.0660
     24 H          -5.2179    4.5792    2.0632 H       1  LIG1        0.0640
     25 C          -7.5862    4.7552    0.7673 C.ar    1  LIG1        0.1748
     26 C          -7.6505    5.9521    1.4258 C.ar    1  LIG1        0.0762
     27 C          -9.0406    6.3182    1.4760 C.ar    1  LIG1        0.0197
     28 C          -9.6890    5.3190    0.8114 C.ar    1  LIG1        0.1754
     29 O          -8.8309    4.3816    0.3806 O.2     1  LIG1       -0.4480
     30 N          -6.5981    6.6897    1.9871 N.pl3   1  LIG1       -0.3548
     31 H          -5.7407    6.6102    1.4512 H       1  LIG1        0.1424
     32 H          -6.8406    7.6650    2.1106 H       1  LIG1        0.1424
     33 C          -9.6214    7.5280    2.1581 C.3     1  LIG1       -0.0342
     34 H         -10.6728    7.3545    2.3869 H       1  LIG1        0.0279
     35 H          -9.5421    8.4179    1.5295 H       1  LIG1        0.0279
     36 H          -9.0937    7.7122    3.0954 H       1  LIG1        0.0279
     37 C         -11.1008    5.1339    0.5053 C.ar    1  LIG1        0.1721
     38 C         -12.1248    6.0088    0.3269 C.ar    1  LIG1        0.0033
     39 C         -13.2909    5.2056    0.0663 C.ar    1  LIG1        0.0712
     40 C         -12.8663    3.9026    0.0869 C.ar    1  LIG1        0.1546
     41 O         -11.5464    3.8664    0.3631 O.2     1  LIG1       -0.4503
     42 H         -12.0810    7.0839    0.3470 H       1  LIG1        0.0669
     43 C         -14.6239    5.7037   -0.0937 C.1     1  LIG1       -0.0658
     44 C         -15.7281    6.1653   -0.1960 C.1     1  LIG1       -0.1138
     45 H         -16.7095    6.5675   -0.2913 H       1  LIG1        0.1232
     46 C         -14.5467    2.3888   -0.9950 C.ar    1  LIG1        0.1282
     47 C         -15.1454    1.1385   -1.0890 C.ar    1  LIG1       -0.0100
     48 C         -13.5295    2.5999   -0.0579 C.ar    1  LIG1        0.0601
     49 C         -14.7345    0.0808   -0.2735 C.ar    1  LIG1        0.0084
     50 H         -15.9380    0.9670   -1.8082 H       1  LIG1        0.0661
     51 C         -13.1225    1.5318    0.7425 C.ar    1  LIG1       -0.0440
     52 C         -13.7047    0.2706    0.6658 C.ar    1  LIG1       -0.0403
     53 H         -12.3300    1.7095    1.4598 H       1  LIG1        0.0629
     54 O         -14.8837    3.4127   -1.8137 O.3     1  LIG1       -0.5060
     55 H         -15.6308    3.1715   -2.3712 H       1  LIG1        0.2922
     56 C         -13.2337   -0.8156    1.6202 C.3     1  LIG1       -0.0391
     57 H         -12.7447   -0.3551    2.4777 H       1  LIG1        0.0278
     58 H         -12.5023   -1.4778    1.1468 H       1  LIG1        0.0278
     59 H         -14.0742   -1.4125    1.9764 H       1  LIG1        0.0278
     60 C         -15.4432   -1.2017   -0.4426 C.ar    1  LIG1        0.0933
     61 C         -16.7632   -1.4220   -0.7962 C.ar    1  LIG1        0.1875
     62 C         -16.9725   -2.8278   -0.8625 C.ar    1  LIG1        0.1875
     63 C         -15.7675   -3.4317   -0.5616 C.ar    1  LIG1        0.0942
     64 N         -14.8691   -2.4313   -0.2896 N.ar    1  LIG1       -0.3482
     65 H         -13.8776   -2.5868   -0.1973 H       1  LIG1        0.1661
     66 O         -17.7114   -0.4578   -0.9997 O.3     1  LIG1       -0.4895
     67 C         -18.4828   -0.1916    0.1733 C.3     1  LIG1        0.0791
     68 H         -19.2102    0.5691   -0.1014 H       1  LIG1        0.0660
     69 H         -18.9902   -1.1024    0.4978 H       1  LIG1        0.0660
     70 H         -17.8308    0.1765    0.9676 H       1  LIG1        0.0660
     71 O         -18.1427   -3.4791   -1.0746 O.3     1  LIG1       -0.4895
     72 C         -18.8649   -3.0362   -2.2284 C.3     1  LIG1        0.0791
     73 H         -19.6807   -3.7429   -2.3574 H       1  LIG1        0.0660
     74 H         -19.2453   -2.0279   -2.0668 H       1  LIG1        0.0660
     75 H         -18.2157   -3.0615   -3.1035 H       1  LIG1        0.0660
     76 C         -15.8455   -5.8575   -1.2418 C.ar    1  LIG1        0.0616
     77 C         -15.4769   -7.1838   -1.0199 C.ar    1  LIG1       -0.0357
     78 C         -15.4070   -4.8440   -0.3791 C.ar    1  LIG1        0.0196
     79 C         -14.6503   -7.5309    0.0462 C.ar    1  LIG1       -0.0137
     80 H         -15.8168   -7.9503   -1.7045 H       1  LIG1        0.0637
     81 C         -14.5909   -5.2118    0.6945 C.ar    1  LIG1       -0.0478
     82 C         -14.1981   -6.5290    0.9220 C.ar    1  LIG1       -0.0420
     83 H         -14.2881   -4.4428    1.3968 H       1  LIG1        0.0627
     84 N         -17.2228   -5.4014   -3.3924 N.1     1  LIG1       -0.1908
     85 C         -16.6322   -5.5633   -2.4215 C.1     1  LIG1        0.0998
     86 C         -13.3345   -6.8540    2.1283 C.3     1  LIG1       -0.0391
     87 H         -13.4560   -6.0827    2.8881 H       1  LIG1        0.0278
     88 H         -12.2806   -6.8969    1.8469 H       1  LIG1        0.0278
     89 H         -13.6142   -7.8200    2.5470 H       1  LIG1        0.0278
     90 C         -15.2834   -9.9205    0.4395 C.ar    1  LIG1       -0.0540
     91 C         -14.9415  -11.2614    0.6031 C.ar    1  LIG1       -0.0609
     92 C         -14.2849   -8.9691    0.2358 C.ar    1  LIG1       -0.0173
     93 C         -13.6087  -11.6515    0.5634 C.ar    1  LIG1       -0.0588
     94 H         -15.7170  -11.9984    0.7667 H       1  LIG1        0.0618
     95 C         -12.9476   -9.3756    0.1916 C.ar    1  LIG1       -0.0511
     96 C         -12.5944  -10.7122    0.3536 C.ar    1  LIG1       -0.0499
     97 H         -12.1768   -8.6358    0.0072 H       1  LIG1        0.0626
     98 H         -13.3465  -12.6955    0.6929 H       1  LIG1        0.0620
     99 H         -16.3190   -9.6064    0.4807 H       1  LIG1        0.0624
    100 C         -11.1431  -11.1545    0.2959 C.3     1  LIG1       -0.0397
    101 H         -10.4839  -10.2972    0.1651 H       1  LIG1        0.0278
    102 H         -10.9903  -11.8406   -0.5387 H       1  LIG1        0.0278
    103 H         -10.8685  -11.6692    1.2177 H       1  LIG1        0.0278
@<TRIPOS>BOND
     1    84    85    3
     2    21    20    1
     3    75    72    1
     4    23    20    1
     5    20    19    1
     6    20    22    1
     7    85    76    1
     8    55    54    1
     9    73    72    1
    10    72    74    1
    11    72    71    1
    12    19    12    1
    13    54    46    1
    14    50    47    1
    15    80    77    1
    16     8     2    1
    17     7     3    1
    18    76    77   ar
    19    76    78   ar
    20     2     3   ar
    21     2     1   ar
    22    10     9    1
    23     3     4   ar
    24    47    46   ar
    25    47    49   ar
    26    71    62    1
    27    77    79   ar
    28     9     1    1
    29    66    61    1
    30    66    67    1
    31    46    48   ar
    32     1     6   ar
    33    12    17   ar
    34    12    13   ar
    35    62    61   ar
    36    62    63   ar
    37     4    11    1
    38     4     5   ar
    39    61    60   ar
    40     6     5   ar
    41     5    13    1
    42    17    16   ar
    43    63    78    1
    44    63    64   ar
    45   102   100    1
    46    60    64   ar
    47    60    49    1
    48    78    81   ar
    49    45    44    1
    50    64    65    1
    51    49    52   ar
    52    13    14   ar
    53    44    43    3
    54    68    67    1
    55    43    39    1
    56    48    40    1
    57    48    51   ar
    58    97    95    1
    59    79    92    1
    60    79    82   ar
    61    39    40   ar
    62    39    38   ar
    63    40    41   ar
    64   101   100    1
    65    67    69    1
    66    67    70    1
    67    95    92   ar
    68    95    96   ar
    69    92    90   ar
    70   100    96    1
    71   100   103    1
    72    38    42    1
    73    38    37   ar
    74    96    93   ar
    75    41    37   ar
    76    29    25   ar
    77    29    28   ar
    78    90    99    1
    79    90    91   ar
    80    16    25    1
    81    16    15   ar
    82    37    28    1
    83    93    91   ar
    84    93    98    1
    85    91    94    1
    86    52    51   ar
    87    52    56    1
    88    81    82   ar
    89    81    83    1
    90    51    53    1
    91    25    26   ar
    92    28    27   ar
    93    14    15   ar
    94    14    18    1
    95    82    86    1
    96    58    56    1
    97    15    24    1
    98    26    27   ar
    99    26    30    1
   100    31    30    1
   101    27    33    1
   102    35    33    1
   103    56    59    1
   104    56    57    1
   105    88    86    1
   106    30    32    1
   107    86    89    1
   108    86    87    1
   109    33    34    1
   110    33    36    1
