@<TRIPOS>MOLECULE
mol_data/opt/m06hf/geoms/mol2/6fa6he-13ih-6ea-.out
 49 52 0 0 0
SMALL
GASTEIGER

@<TRIPOS>ATOM
      1 C          -4.3272   -2.2173    0.2841 C.ar    1  LIG1        0.2128
      2 C          -2.9319   -2.1878    0.3533 C.ar    1  LIG1       -0.0001
      3 C          -2.3247   -0.9412    0.3570 C.ar    1  LIG1       -0.0547
      4 C          -3.0983    0.2103    0.2781 C.ar    1  LIG1       -0.0353
      5 C          -4.4867    0.0745    0.1753 C.ar    1  LIG1        0.0781
      6 N          -5.0694   -1.1306    0.1929 N.ar    1  LIG1       -0.2129
      7 H          -1.2477   -0.8670    0.4342 H       1  LIG1        0.0620
      8 H          -2.3566   -3.1017    0.4194 H       1  LIG1        0.0671
      9 O          -5.0279   -3.3721    0.3048 O.3     1  LIG1       -0.4924
     10 H          -4.4387   -4.1300    0.3778 H       1  LIG1        0.2937
     11 H          -2.6404    1.1865    0.3278 H       1  LIG1        0.0639
     12 C          -6.7504    1.2564    0.4185 C.ar    1  LIG1        0.1262
     13 C          -5.3676    1.2645    0.0504 C.ar    1  LIG1        0.0412
     14 C          -4.8753    2.4535   -0.4570 C.ar    1  LIG1       -0.0317
     15 C          -5.6552    3.6126   -0.5274 C.ar    1  LIG1        0.0528
     16 C          -6.9615    3.5297   -0.0135 C.ar    1  LIG1        0.1049
     17 N          -7.4799    2.3777    0.4032 N.ar    1  LIG1       -0.2291
     18 H          -3.8688    2.4973   -0.8531 H       1  LIG1        0.0638
     19 N          -7.3855    0.1438    0.8230 N.pl3   1  LIG1       -0.3426
     20 H          -8.3587    0.2365    1.0636 H       1  LIG1        0.1437
     21 H          -6.9335   -0.7537    0.7056 H       1  LIG1        0.1437
     22 C          -5.1316    4.7677   -1.2058 C.1     1  LIG1       -0.0674
     23 C          -4.6440    5.6875   -1.8089 C.1     1  LIG1       -0.1138
     24 H          -4.2253    6.5087   -2.3429 H       1  LIG1        0.1232
     25 C          -7.8894    4.6738    0.0388 C.ar    1  LIG1        0.0714
     26 C          -7.7334    6.0317    0.2923 C.ar    1  LIG1       -0.0024
     27 C          -9.0325    6.5938    0.2195 C.ar    1  LIG1        0.0539
     28 C          -9.9365    5.5699   -0.0486 C.ar    1  LIG1        0.0708
     29 N          -9.2074    4.4241   -0.1520 N.ar    1  LIG1       -0.3512
     30 H          -9.5732    3.5012   -0.3394 H       1  LIG1        0.1660
     31 C          -6.4966    6.7890    0.7069 C.3     1  LIG1       -0.0359
     32 H          -6.7204    7.4031    1.5830 H       1  LIG1        0.0279
     33 H          -6.1322    7.4322   -0.0971 H       1  LIG1        0.0279
     34 H          -5.6971    6.1002    0.9725 H       1  LIG1        0.0279
     35 N          -9.3583    7.9601    0.4234 N.pl3   1  LIG1       -0.3561
     36 H          -8.5215    8.5052    0.5967 H       1  LIG1        0.1424
     37 H          -9.8345    8.3504   -0.3856 H       1  LIG1        0.1424
     38 C         -12.1917    4.6862   -0.8335 C.ar    1  LIG1        0.1222
     39 C         -11.4017    5.6295   -0.1494 C.ar    1  LIG1        0.0339
     40 C         -12.0867    6.6736    0.4903 C.ar    1  LIG1       -0.0485
     41 C         -13.4670    6.7411    0.4130 C.ar    1  LIG1       -0.0429
     42 C         -14.1454    5.7512   -0.2981 C.ar    1  LIG1        0.0290
     43 N         -13.5246    4.7474   -0.8999 N.ar    1  LIG1       -0.2460
     44 H         -11.5136    7.4080    1.0433 H       1  LIG1        0.0625
     45 H         -15.2252    5.7653   -0.3822 H       1  LIG1        0.0830
     46 C         -11.6025    3.5566   -1.5341 C.1     1  LIG1       -0.0491
     47 C         -11.1352    2.6121   -2.1130 C.1     1  LIG1       -0.1124
     48 H         -10.7289    1.7793   -2.6395 H       1  LIG1        0.1232
     49 H         -14.0140    7.5363    0.8999 H       1  LIG1        0.0633
@<TRIPOS>BOND
     1    48    47    1
     2    24    23    1
     3    47    46    3
     4    23    22    3
     5    46    38    1
     6    22    15    1
     7    43    38   ar
     8    43    42   ar
     9    18    14    1
    10    38    39   ar
    11    15    14   ar
    12    15    16   ar
    13    14    13   ar
    14    37    35    1
    15    45    42    1
    16    30    29    1
    17    42    41   ar
    18    29    28   ar
    19    29    25   ar
    20    39    28    1
    21    39    40   ar
    22    33    31    1
    23    28    27   ar
    24    16    25    1
    25    16    17   ar
    26    25    26   ar
    27    13     5    1
    28    13    12   ar
    29     5     6   ar
    30     5     4   ar
    31     6     1   ar
    32    27    26   ar
    33    27    35    1
    34     4    11    1
    35     4     3   ar
    36     1     9    1
    37     1     2   ar
    38    26    31    1
    39     9    10    1
    40     2     3   ar
    41     2     8    1
    42     3     7    1
    43    17    12   ar
    44    41    40   ar
    45    41    49    1
    46    12    19    1
    47    35    36    1
    48    40    44    1
    49    21    19    1
    50    31    34    1
    51    31    32    1
    52    19    20    1
