@<TRIPOS>MOLECULE
mol_data/opt/m06hf/geoms/mol2/6fa6fa-6fa-6fa.out
 42 45 0 0 0
SMALL
GASTEIGER

@<TRIPOS>ATOM
      1 C          -4.5310   -2.2008    0.2785 C.ar    1  LIG1        0.2128
      2 C          -3.1672   -2.3887    0.0108 C.ar    1  LIG1       -0.0001
      3 C          -2.4237   -1.2634   -0.2932 C.ar    1  LIG1       -0.0547
      4 C          -3.0275   -0.0062   -0.3232 C.ar    1  LIG1       -0.0353
      5 C          -4.3906    0.0660   -0.0408 C.ar    1  LIG1        0.0799
      6 N          -5.1120   -1.0235    0.2520 N.ar    1  LIG1       -0.2129
      7 H          -1.3669   -1.3574   -0.5082 H       1  LIG1        0.0620
      8 H          -2.7231   -3.3751    0.0414 H       1  LIG1        0.0671
      9 O          -5.3496   -3.2329    0.5857 O.3     1  LIG1       -0.4924
     10 H          -4.8627   -4.0633    0.5885 H       1  LIG1        0.2937
     11 H          -2.4647    0.8812   -0.5565 H       1  LIG1        0.0639
     12 C          -4.6685    2.6208   -0.2995 C.ar    1  LIG1        0.2223
     13 C          -5.1810    1.3368   -0.0327 C.ar    1  LIG1        0.0618
     14 C          -6.5396    1.2837    0.2646 C.ar    1  LIG1       -0.0454
     15 C          -7.3136    2.4389    0.2866 C.ar    1  LIG1       -0.0347
     16 C          -6.6920    3.6489   -0.0048 C.ar    1  LIG1        0.0799
     17 N          -5.3921    3.7230   -0.2912 N.ar    1  LIG1       -0.2123
     18 H          -6.9672    0.3146    0.4855 H       1  LIG1        0.0626
     19 O          -3.3627    2.7930   -0.5942 O.3     1  LIG1       -0.4919
     20 H          -3.2382    3.7435   -0.7264 H       1  LIG1        0.2937
     21 H          -8.3623    2.4067    0.5440 H       1  LIG1        0.0639
     22 C          -7.0403    6.0945    0.5972 C.ar    1  LIG1        0.2223
     23 C          -7.4771    4.9145   -0.0410 C.ar    1  LIG1        0.0618
     24 C          -8.6874    4.9915   -0.7092 C.ar    1  LIG1       -0.0454
     25 C          -9.4194    6.1809   -0.7253 C.ar    1  LIG1       -0.0347
     26 C          -8.9015    7.2783   -0.0415 C.ar    1  LIG1        0.0799
     27 N          -7.7251    7.2208    0.5977 N.ar    1  LIG1       -0.2123
     28 H          -9.0488    4.1222   -1.2449 H       1  LIG1        0.0626
     29 O          -5.8845    6.0858    1.2732 O.3     1  LIG1       -0.4919
     30 H          -5.7791    6.9614    1.6700 H       1  LIG1        0.2937
     31 H         -10.3366    6.2664   -1.2919 H       1  LIG1        0.0639
     32 C         -11.0000    8.7097    0.0874 C.ar    1  LIG1        0.2217
     33 C          -9.5991    8.5946   -0.0163 C.ar    1  LIG1        0.0618
     34 C          -8.8661    9.7740   -0.0824 C.ar    1  LIG1       -0.0460
     35 C          -9.5261   10.9972   -0.1058 C.ar    1  LIG1       -0.0427
     36 C         -10.9151   10.9803   -0.0513 C.ar    1  LIG1        0.0314
     37 N         -11.6346    9.8656    0.0570 N.ar    1  LIG1       -0.2209
     38 H          -7.7864    9.7085   -0.1260 H       1  LIG1        0.0626
     39 H         -11.4808   11.9039   -0.0854 H       1  LIG1        0.0831
     40 O         -11.7971    7.6278    0.2352 O.3     1  LIG1       -0.4919
     41 H         -11.2739    6.8658    0.5123 H       1  LIG1        0.2937
     42 H          -8.9866   11.9304   -0.1721 H       1  LIG1        0.0633
@<TRIPOS>BOND
     1    31    25    1
     2    28    24    1
     3    20    19    1
     4    25    24   ar
     5    25    26   ar
     6    24    23   ar
     7    19    12    1
     8    11     4    1
     9     7     3    1
    10     4     3   ar
    11     4     5   ar
    12    12    17   ar
    13    12    13   ar
    14     3     2   ar
    15    17    16   ar
    16    42    35    1
    17    38    34    1
    18    35    34   ar
    19    35    36   ar
    20    39    36    1
    21    34    33   ar
    22    36    37   ar
    23    26    33    1
    24    26    27   ar
    25    23    16    1
    26    23    22   ar
    27     5    13    1
    28     5     6   ar
    29    13    14   ar
    30    33    32   ar
    31    16    15   ar
    32     2     8    1
    33     2     1   ar
    34    37    32   ar
    35    32    40    1
    36    40    41    1
    37     6     1   ar
    38    14    15   ar
    39    14    18    1
    40     1     9    1
    41    15    21    1
    42     9    10    1
    43    22    27   ar
    44    22    29    1
    45    29    30    1
