@<TRIPOS>MOLECULE
mol_data/opt/m06hf/geoms/mol2/6fa6fa-.out
 22 23 0 0 0
SMALL
GASTEIGER

@<TRIPOS>ATOM
      1 C          -4.5450   -2.0482   -0.0001 C.ar    1  LIG1        0.2128
      2 C          -3.1460   -2.1370   -0.0000 C.ar    1  LIG1       -0.0001
      3 C          -2.4393   -0.9481   -0.0001 C.ar    1  LIG1       -0.0547
      4 C          -3.1143    0.2721   -0.0002 C.ar    1  LIG1       -0.0353
      5 C          -4.5087    0.2450   -0.0002 C.ar    1  LIG1        0.0799
      6 N          -5.1936   -0.9059   -0.0001 N.ar    1  LIG1       -0.2129
      7 H          -1.3573   -0.9645   -0.0001 H       1  LIG1        0.0620
      8 H          -2.6459   -3.0967    0.0000 H       1  LIG1        0.0671
      9 O          -5.3310   -3.1496    0.0000 O.3     1  LIG1       -0.4924
     10 H          -4.7939   -3.9485    0.0001 H       1  LIG1        0.2937
     11 H          -2.5812    1.2075   -0.0003 H       1  LIG1        0.0639
     12 C          -4.9011    2.7942   -0.0003 C.ar    1  LIG1        0.2217
     13 C          -5.3707    1.4685   -0.0003 C.ar    1  LIG1        0.0618
     14 C          -6.7558    1.3183   -0.0003 C.ar    1  LIG1       -0.0460
     15 C          -7.5940    2.4284   -0.0004 C.ar    1  LIG1       -0.0427
     16 C          -7.0060    3.6842   -0.0004 C.ar    1  LIG1        0.0314
     17 N          -5.6851    3.8575   -0.0004 N.ar    1  LIG1       -0.2209
     18 H          -7.1489    0.3102   -0.0003 H       1  LIG1        0.0626
     19 H          -7.6042    4.5869   -0.0005 H       1  LIG1        0.0831
     20 O          -3.5760    3.0572   -0.0003 O.3     1  LIG1       -0.4919
     21 H          -3.4926    4.0209   -0.0004 H       1  LIG1        0.2937
     22 H          -8.6690    2.3216   -0.0004 H       1  LIG1        0.0633
@<TRIPOS>BOND
     1    19    16    1
     2    16    17   ar
     3    16    15   ar
     4    22    15    1
     5    17    12   ar
     6    15    14   ar
     7    21    20    1
     8    12    20    1
     9    12    13   ar
    10    14    13   ar
    11    14    18    1
    12    13     5    1
    13    11     4    1
    14     5     4   ar
    15     5     6   ar
    16     4     3   ar
    17     6     1   ar
    18     3     7    1
    19     3     2   ar
    20     1     2   ar
    21     1     9    1
    22     2     8    1
    23     9    10    1
