@<TRIPOS>MOLECULE
mol_data/opt/m06hf/geoms/mol2/6fa6fa6fa-6fa-.out
 42 45 0 0 0
SMALL
GASTEIGER

@<TRIPOS>ATOM
      1 C          -4.5333   -2.2576    0.2302 C.ar    1  LIG1        0.2128
      2 C          -3.1645   -2.3943   -0.0090 C.ar    1  LIG1       -0.0001
      3 C          -2.4516   -1.2350   -0.2782 C.ar    1  LIG1       -0.0547
      4 C          -3.0900   -0.0010   -0.2967 C.ar    1  LIG1       -0.0353
      5 C          -4.4620    0.0421   -0.0340 C.ar    1  LIG1        0.0799
      6 N          -5.1425   -1.0866    0.2164 N.ar    1  LIG1       -0.2129
      7 H          -1.3894   -1.2939   -0.4782 H       1  LIG1        0.0620
      8 H          -2.6890   -3.3654    0.0104 H       1  LIG1        0.0671
      9 O          -5.3403   -3.3021    0.4947 O.3     1  LIG1       -0.4924
     10 H          -4.8496   -4.1306    0.4869 H       1  LIG1        0.2937
     11 H          -2.5329    0.8946   -0.5211 H       1  LIG1        0.0639
     12 C          -6.6666    1.2896    0.1362 C.ar    1  LIG1        0.2223
     13 C          -5.2506    1.3001   -0.0176 C.ar    1  LIG1        0.0618
     14 C          -4.6541    2.5500   -0.1510 C.ar    1  LIG1       -0.0454
     15 C          -5.4059    3.7158   -0.1557 C.ar    1  LIG1       -0.0347
     16 C          -6.7911    3.5889   -0.0222 C.ar    1  LIG1        0.0799
     17 N          -7.3802    2.4029    0.1237 N.ar    1  LIG1       -0.2123
     18 H          -3.5793    2.6311   -0.2443 H       1  LIG1        0.0626
     19 O          -7.3527    0.1680    0.2987 O.3     1  LIG1       -0.4919
     20 H          -6.7036   -0.5881    0.3293 H       1  LIG1        0.2937
     21 H          -4.9430    4.6822   -0.2572 H       1  LIG1        0.0639
     22 C          -7.3966    6.0841   -0.2843 C.ar    1  LIG1        0.2223
     23 C          -7.7365    4.7469   -0.0057 C.ar    1  LIG1        0.0618
     24 C          -9.0746    4.5177    0.3026 C.ar    1  LIG1       -0.0454
     25 C          -9.9895    5.5638    0.3291 C.ar    1  LIG1       -0.0347
     26 C          -9.5344    6.8434    0.0217 C.ar    1  LIG1        0.0799
     27 N          -8.2575    7.0831   -0.2792 N.ar    1  LIG1       -0.2123
     28 H          -9.3677    3.4999    0.5246 H       1  LIG1        0.0626
     29 O          -6.1263    6.4205   -0.5952 O.3     1  LIG1       -0.4919
     30 H          -6.1282    7.3773   -0.7391 H       1  LIG1        0.2937
     31 H         -11.0226    5.3994    0.5994 H       1  LIG1        0.0639
     32 C         -10.1909    9.2312    0.5879 C.ar    1  LIG1        0.2217
     33 C         -10.4810    7.9931   -0.0181 C.ar    1  LIG1        0.0618
     34 C         -11.7103    7.8848   -0.6516 C.ar    1  LIG1       -0.0460
     35 C         -12.5916    8.9667   -0.6755 C.ar    1  LIG1       -0.0427
     36 C         -12.1913   10.1350   -0.0484 C.ar    1  LIG1        0.0314
     37 N         -11.0159   10.2617    0.5722 N.ar    1  LIG1       -0.2209
     38 H         -11.9667    6.9537   -1.1426 H       1  LIG1        0.0626
     39 H         -12.8305   11.0093   -0.0350 H       1  LIG1        0.0831
     40 O          -9.0324    9.3910    1.2459 O.3     1  LIG1       -0.4919
     41 H          -9.0380   10.2895    1.6029 H       1  LIG1        0.2937
     42 H         -13.5500    8.9034   -1.1692 H       1  LIG1        0.0633
@<TRIPOS>BOND
     1    42    35    1
     2    38    34    1
     3    30    29    1
     4    35    34   ar
     5    35    36   ar
     6    34    33   ar
     7    29    22    1
     8    11     4    1
     9     7     3    1
    10     4     3   ar
    11     4     5   ar
    12    22    27   ar
    13    22    23   ar
    14    27    26   ar
    15     3     2   ar
    16    21    15    1
    17    18    14    1
    18    15    14   ar
    19    15    16   ar
    20    14    13   ar
    21    36    39    1
    22    36    37   ar
    23     5    13    1
    24     5     6   ar
    25    16    23    1
    26    16    17   ar
    27    33    26    1
    28    33    32   ar
    29    13    12   ar
    30     2     8    1
    31     2     1   ar
    32    23    24   ar
    33    26    25   ar
    34    17    12   ar
    35    12    19    1
    36     6     1   ar
    37     1     9    1
    38    19    20    1
    39    24    25   ar
    40    24    28    1
    41    25    31    1
    42    10     9    1
    43    37    32   ar
    44    32    40    1
    45    40    41    1
