@<TRIPOS>MOLECULE
mol_data/opt/m06hf/geoms/mol2/6fa6fa6fa6fa.out
 42 45 0 0 0
SMALL
GASTEIGER

@<TRIPOS>ATOM
      1 C          -4.4432   -2.2325   -0.0004 C.ar    1  LIG1        0.2128
      2 C          -3.0487   -2.3125   -0.0004 C.ar    1  LIG1       -0.0001
      3 C          -2.3461   -1.1169   -0.0004 C.ar    1  LIG1       -0.0547
      4 C          -3.0187    0.1002   -0.0003 C.ar    1  LIG1       -0.0353
      5 C          -4.4146    0.0846   -0.0003 C.ar    1  LIG1        0.0799
      6 N          -5.0841   -1.0776   -0.0003 N.ar    1  LIG1       -0.2129
      7 H          -1.2641   -1.1332   -0.0004 H       1  LIG1        0.0620
      8 H          -2.5453   -3.2694   -0.0004 H       1  LIG1        0.0671
      9 O          -5.2445   -3.3110   -0.0004 O.3     1  LIG1       -0.4924
     10 H          -4.7350   -4.1282   -0.0004 H       1  LIG1        0.2937
     11 H          -2.4645    1.0250   -0.0003 H       1  LIG1        0.0639
     12 C          -6.6705    1.2248   -0.0000 C.ar    1  LIG1        0.2223
     13 C          -5.2521    1.3105   -0.0002 C.ar    1  LIG1        0.0618
     14 C          -4.7105    2.5940   -0.0003 C.ar    1  LIG1       -0.0454
     15 C          -5.5124    3.7234   -0.0002 C.ar    1  LIG1       -0.0347
     16 C          -6.8995    3.5449   -0.0001 C.ar    1  LIG1        0.0799
     17 N          -7.4270    2.3167    0.0000 N.ar    1  LIG1       -0.2123
     18 H          -3.6370    2.7273   -0.0004 H       1  LIG1        0.0626
     19 O          -7.3223    0.0818    0.0001 O.3     1  LIG1       -0.4919
     20 H          -6.6422   -0.6576    0.0000 H       1  LIG1        0.2937
     21 H          -5.0653    4.7042   -0.0003 H       1  LIG1        0.0639
     22 C          -9.2676    4.4166    0.0003 C.ar    1  LIG1        0.2223
     23 C          -7.8693    4.6648    0.0000 C.ar    1  LIG1        0.0618
     24 C          -7.4776    6.0029   -0.0001 C.ar    1  LIG1       -0.0454
     25 C          -8.4032    7.0311    0.0000 C.ar    1  LIG1       -0.0347
     26 C          -9.7632    6.6963    0.0003 C.ar    1  LIG1        0.0799
     27 N         -10.1447    5.4158    0.0004 N.ar    1  LIG1       -0.2123
     28 H          -6.4257    6.2556   -0.0003 H       1  LIG1        0.0626
     29 O          -9.7800    3.2062    0.0004 O.3     1  LIG1       -0.4919
     30 H          -9.0135    2.5507    0.0002 H       1  LIG1        0.2937
     31 H          -8.0699    8.0563   -0.0001 H       1  LIG1        0.0639
     32 C         -12.2233    7.3089    0.0010 C.ar    1  LIG1        0.2217
     33 C         -10.8531    7.7042    0.0005 C.ar    1  LIG1        0.0618
     34 C         -10.5891    9.0730    0.0002 C.ar    1  LIG1       -0.0460
     35 C         -11.6259    9.9921    0.0005 C.ar    1  LIG1       -0.0427
     36 C         -12.9252    9.4876    0.0010 C.ar    1  LIG1        0.0314
     37 N         -13.2161    8.1958    0.0013 N.ar    1  LIG1       -0.2209
     38 H          -9.5674    9.4285   -0.0002 H       1  LIG1        0.0626
     39 H         -13.7744   10.1620    0.0013 H       1  LIG1        0.0831
     40 O         -12.5887    6.0408    0.0013 O.3     1  LIG1       -0.4919
     41 H         -11.7579    5.4794    0.0009 H       1  LIG1        0.2937
     42 H         -11.4419   11.0560    0.0003 H       1  LIG1        0.0633
@<TRIPOS>BOND
     1     8     2    1
     2    18    14    1
     3    10     9    1
     4     7     3    1
     5     2     3   ar
     6     2     1   ar
     7     9     1    1
     8     3     4   ar
     9     1     6   ar
    10    21    15    1
    11    28    24    1
    12    14    15   ar
    13    14    13   ar
    14     4    11    1
    15     4     5   ar
    16     6     5   ar
    17     5    13    1
    18    15    16   ar
    19    38    34    1
    20    13    12   ar
    21    24    23   ar
    22    24    25   ar
    23    16    23    1
    24    16    17   ar
    25    31    25    1
    26    12    17   ar
    27    12    19    1
    28    23    22   ar
    29    25    26   ar
    30    20    19    1
    31    30    29    1
    32    34    35   ar
    33    34    33   ar
    34    22    29    1
    35    22    27   ar
    36    42    35    1
    37    26    27   ar
    38    26    33    1
    39    35    36   ar
    40    33    32   ar
    41    41    40    1
    42    32    40    1
    43    32    37   ar
    44    36    39    1
    45    36    37   ar
