@<TRIPOS>MOLECULE
mol_data/opt/m06hf/geoms/mol2/6fa6fa.out
 22 23 0 0 0
SMALL
GASTEIGER

@<TRIPOS>ATOM
      1 C          -4.4823   -2.0731   -0.0001 C.ar    1  LIG1        0.2128
      2 C          -3.0866   -2.0968   -0.0001 C.ar    1  LIG1       -0.0001
      3 C          -2.4345   -0.8723   -0.0000 C.ar    1  LIG1       -0.0547
      4 C          -3.1583    0.3139   -0.0001 C.ar    1  LIG1       -0.0353
      5 C          -4.5542    0.2435   -0.0002 C.ar    1  LIG1        0.0799
      6 N          -5.1722   -0.9473   -0.0002 N.ar    1  LIG1       -0.2129
      7 H          -1.3528   -0.8422    0.0001 H       1  LIG1        0.0620
      8 H          -2.5439   -3.0321   -0.0000 H       1  LIG1        0.0671
      9 O          -5.2358   -3.1884   -0.0002 O.3     1  LIG1       -0.4924
     10 H          -4.6853   -3.9785   -0.0001 H       1  LIG1        0.2937
     11 H          -2.6411    1.2598   -0.0000 H       1  LIG1        0.0639
     12 C          -6.8557    1.3161   -0.0000 C.ar    1  LIG1        0.2217
     13 C          -5.4364    1.4405   -0.0003 C.ar    1  LIG1        0.0618
     14 C          -4.9169    2.7341   -0.0007 C.ar    1  LIG1       -0.0460
     15 C          -5.7595    3.8344   -0.0007 C.ar    1  LIG1       -0.0427
     16 C          -7.1306    3.5882   -0.0004 C.ar    1  LIG1        0.0314
     17 N          -7.6610    2.3744   -0.0001 N.ar    1  LIG1       -0.2209
     18 H          -3.8467    2.8904   -0.0010 H       1  LIG1        0.0626
     19 H          -7.8361    4.4113   -0.0004 H       1  LIG1        0.0831
     20 O          -7.4614    0.1400    0.0003 O.3     1  LIG1       -0.4919
     21 H          -6.7612   -0.5696    0.0002 H       1  LIG1        0.2937
     22 H          -5.3749    4.8432   -0.0010 H       1  LIG1        0.0633
@<TRIPOS>BOND
     1    22    15    1
     2    18    14    1
     3    15    14   ar
     4    15    16   ar
     5    14    13   ar
     6    19    16    1
     7    16    17   ar
     8    13     5    1
     9    13    12   ar
    10     6     5   ar
    11     6     1   ar
    12     5     4   ar
    13     9     1    1
    14     9    10    1
    15     1     2   ar
    16     4     3   ar
    17     4    11    1
    18    17    12   ar
    19     2     3   ar
    20     2     8    1
    21    12    20    1
    22     3     7    1
    23    21    20    1
