@<TRIPOS>MOLECULE
mol_data/opt/m06hf/geoms/mol2/6fa6fa-4fa6fa.out
 43 46 0 0 0
SMALL
GASTEIGER

@<TRIPOS>ATOM
      1 C          -4.4984   -2.1897    0.2880 C.ar    1  LIG1        0.2128
      2 C          -3.1389   -2.3687   -0.0064 C.ar    1  LIG1       -0.0001
      3 C          -2.4135   -1.2410   -0.3436 C.ar    1  LIG1       -0.0547
      4 C          -3.0304    0.0095   -0.3783 C.ar    1  LIG1       -0.0353
      5 C          -4.3875    0.0735   -0.0664 C.ar    1  LIG1        0.0799
      6 N          -5.0918   -1.0188    0.2572 N.ar    1  LIG1       -0.2129
      7 H          -1.3609   -1.3281   -0.5809 H       1  LIG1        0.0620
      8 H          -2.6844   -3.3500    0.0294 H       1  LIG1        0.0671
      9 O          -5.2989   -3.2257    0.6290 O.3     1  LIG1       -0.4924
     10 H          -4.8030   -4.0507    0.6315 H       1  LIG1        0.2937
     11 H          -2.4820    0.8991   -0.6369 H       1  LIG1        0.0639
     12 C          -4.6851    2.6257   -0.3170 C.ar    1  LIG1        0.2223
     13 C          -5.1888    1.3371   -0.0594 C.ar    1  LIG1        0.0618
     14 C          -6.5487    1.2726    0.2309 C.ar    1  LIG1       -0.0454
     15 C          -7.3299    2.4226    0.2578 C.ar    1  LIG1       -0.0347
     16 C          -6.7153    3.6403   -0.0171 C.ar    1  LIG1        0.0783
     17 N          -5.4147    3.7239   -0.2999 N.ar    1  LIG1       -0.2124
     18 H          -6.9701    0.2988    0.4438 H       1  LIG1        0.0626
     19 O          -3.3793    2.8084   -0.6091 O.3     1  LIG1       -0.4919
     20 H          -3.2598    3.7615   -0.7260 H       1  LIG1        0.2937
     21 H          -8.3805    2.3827    0.5061 H       1  LIG1        0.0639
     22 C          -7.0931    6.0334    0.6918 C.ar    1  LIG1        0.1266
     23 C          -7.8575    7.1972    0.6705 C.ar    1  LIG1       -0.0116
     24 C          -7.5073    4.9057   -0.0334 C.ar    1  LIG1        0.0419
     25 C          -9.0375    7.2623   -0.0726 C.ar    1  LIG1       -0.0093
     26 H          -7.5485    8.0577    1.2545 H       1  LIG1        0.0660
     27 C          -8.6917    4.9785   -0.7616 C.ar    1  LIG1       -0.0485
     28 C          -9.4578    6.1412   -0.7935 C.ar    1  LIG1       -0.0530
     29 H          -8.9999    4.1128   -1.3348 H       1  LIG1        0.0625
     30 O          -5.9635    5.9397    1.4327 O.3     1  LIG1       -0.5061
     31 H          -5.8329    6.7425    1.9482 H       1  LIG1        0.2922
     32 H         -10.3540    6.1926   -1.3998 H       1  LIG1        0.0624
     33 C         -11.2012    8.5279    0.2436 C.ar    1  LIG1        0.2202
     34 C          -9.8303    8.5259   -0.0933 C.ar    1  LIG1        0.0436
     35 C          -9.2574    9.7460   -0.4264 C.ar    1  LIG1       -0.0475
     36 C         -10.0370   10.9000   -0.4362 C.ar    1  LIG1       -0.0428
     37 C         -11.3788   10.7713   -0.1041 C.ar    1  LIG1        0.0314
     38 N         -11.9482    9.6146    0.2335 N.ar    1  LIG1       -0.2209
     39 H          -8.2089    9.7789   -0.6967 H       1  LIG1        0.0626
     40 H         -12.0338   11.6344   -0.1045 H       1  LIG1        0.0831
     41 O         -11.8354    7.3967    0.6111 O.3     1  LIG1       -0.4920
     42 H         -11.1992    6.6759    0.7033 H       1  LIG1        0.2937
     43 H          -9.6211   11.8611   -0.7007 H       1  LIG1        0.0633
@<TRIPOS>BOND
     1    32    28    1
     2    29    27    1
     3    28    27   ar
     4    28    25   ar
     5    27    24   ar
     6    20    19    1
     7    43    36    1
     8    39    35    1
     9    11     4    1
    10    19    12    1
    11     7     3    1
    12    36    35   ar
    13    36    37   ar
    14    35    34   ar
    15     4     3   ar
    16     4     5   ar
    17     3     2   ar
    18    12    17   ar
    19    12    13   ar
    20    17    16   ar
    21    40    37    1
    22    37    38   ar
    23    34    25    1
    24    34    33   ar
    25    25    23   ar
    26     5    13    1
    27     5     6   ar
    28    13    14   ar
    29    24    16    1
    30    24    22   ar
    31    16    15   ar
    32     2     8    1
    33     2     1   ar
    34    14    15   ar
    35    14    18    1
    36    38    33   ar
    37    33    41    1
    38     6     1   ar
    39    15    21    1
    40     1     9    1
    41    41    42    1
    42     9    10    1
    43    23    22   ar
    44    23    26    1
    45    22    30    1
    46    30    31    1
