@<TRIPOS>MOLECULE
mol_data/opt/m06hf/geoms/mol2/6fa6fa-6fa-6fa-.out
 42 45 0 0 0
SMALL
GASTEIGER

@<TRIPOS>ATOM
      1 C          -4.4592   -2.1548    0.5661 C.ar    1  LIG1        0.2128
      2 C          -3.1979   -2.4058    0.0075 C.ar    1  LIG1       -0.0001
      3 C          -2.5611   -1.3467   -0.6139 C.ar    1  LIG1       -0.0547
      4 C          -3.1716   -0.0943   -0.6712 C.ar    1  LIG1       -0.0353
      5 C          -4.4304    0.0424   -0.0872 C.ar    1  LIG1        0.0799
      6 N          -5.0459   -0.9806    0.5188 N.ar    1  LIG1       -0.2129
      7 H          -1.5836   -1.4892   -1.0563 H       1  LIG1        0.0620
      8 H          -2.7469   -3.3880    0.0650 H       1  LIG1        0.0671
      9 O          -5.1660   -3.1195    1.1998 O.3     1  LIG1       -0.4924
     10 H          -4.6817   -3.9514    1.1957 H       1  LIG1        0.2937
     11 H          -2.6924    0.7427   -1.1492 H       1  LIG1        0.0639
     12 C          -4.8735    2.4895   -0.7715 C.ar    1  LIG1        0.2223
     13 C          -5.2027    1.3224   -0.0565 C.ar    1  LIG1        0.0618
     14 C          -6.3516    1.4006    0.7249 C.ar    1  LIG1       -0.0454
     15 C          -7.0980    2.5723    0.7830 C.ar    1  LIG1       -0.0347
     16 C          -6.6736    3.6588    0.0239 C.ar    1  LIG1        0.0799
     17 N          -5.5804    3.6017   -0.7379 N.ar    1  LIG1       -0.2123
     18 H          -6.6363    0.5205    1.2864 H       1  LIG1        0.0626
     19 O          -3.7838    2.5218   -1.5678 O.3     1  LIG1       -0.4919
     20 H          -3.7563    3.4091   -1.9539 H       1  LIG1        0.2937
     21 H          -7.9718    2.6511    1.4134 H       1  LIG1        0.0639
     22 C          -6.8390    6.1865    0.1785 C.ar    1  LIG1        0.2223
     23 C          -7.4520    4.9283    0.0122 C.ar    1  LIG1        0.0618
     24 C          -8.8290    4.9297   -0.1456 C.ar    1  LIG1       -0.0454
     25 C          -9.5403    6.1298   -0.1460 C.ar    1  LIG1       -0.0347
     26 C          -8.8249    7.3114    0.0074 C.ar    1  LIG1        0.0799
     27 N          -7.4984    7.3272    0.1687 N.ar    1  LIG1       -0.2123
     28 H          -9.3450    3.9864   -0.2783 H       1  LIG1        0.0626
     29 O          -5.5149    6.2535    0.3809 O.3     1  LIG1       -0.4919
     30 H          -5.3011    7.1874    0.5145 H       1  LIG1        0.2937
     31 H         -10.6156    6.1483   -0.2477 H       1  LIG1        0.0639
     32 C          -9.3066    9.6222    0.9385 C.ar    1  LIG1        0.2217
     33 C          -9.5232    8.6277   -0.0361 C.ar    1  LIG1        0.0618
     34 C         -10.4283    8.9297   -1.0423 C.ar    1  LIG1       -0.0460
     35 C         -11.0692   10.1698   -1.0671 C.ar    1  LIG1       -0.0427
     36 C         -10.7658   11.0697   -0.0592 C.ar    1  LIG1        0.0314
     37 N          -9.9052   10.7983    0.9253 N.ar    1  LIG1       -0.2209
     38 H         -10.6143    8.1973   -1.8185 H       1  LIG1        0.0626
     39 H         -11.2248   12.0503   -0.0281 H       1  LIG1        0.0831
     40 O          -8.4721    9.3740    1.9591 O.3     1  LIG1       -0.4919
     41 H          -8.4665   10.1644    2.5161 H       1  LIG1        0.2937
     42 H         -11.7697   10.4273   -1.8476 H       1  LIG1        0.0633
@<TRIPOS>BOND
     1    20    19    1
     2    42    35    1
     3    38    34    1
     4    19    12    1
     5    11     4    1
     6    35    34   ar
     7    35    36   ar
     8     7     3    1
     9    34    33   ar
    10    12    17   ar
    11    12    13   ar
    12    17    16   ar
    13     4     3   ar
    14     4     5   ar
    15     3     2   ar
    16    28    24    1
    17    31    25    1
    18    25    24   ar
    19    25    26   ar
    20    24    23   ar
    21     5    13    1
    22     5     6   ar
    23    36    39    1
    24    36    37   ar
    25    13    14   ar
    26    33    26    1
    27    33    32   ar
    28    26    27   ar
    29     2     8    1
    30     2     1   ar
    31    23    16    1
    32    23    22   ar
    33    16    15   ar
    34    27    22   ar
    35    22    29    1
    36    29    30    1
    37     6     1   ar
    38     1     9    1
    39    14    15   ar
    40    14    18    1
    41    15    21    1
    42    37    32   ar
    43    32    40    1
    44    10     9    1
    45    40    41    1
