@<TRIPOS>MOLECULE
mol_data/opt/m06hf/geoms/mol2/6fa6fa6fa6fa-.out
 42 45 0 0 0
SMALL
GASTEIGER

@<TRIPOS>ATOM
      1 C          -4.4793   -2.2553   -0.0002 C.ar    1  LIG1        0.2128
      2 C          -3.0855   -2.3452   -0.0003 C.ar    1  LIG1       -0.0001
      3 C          -2.3751   -1.1538   -0.0004 C.ar    1  LIG1       -0.0547
      4 C          -3.0395    0.0673   -0.0004 C.ar    1  LIG1       -0.0353
      5 C          -4.4363    0.0613   -0.0003 C.ar    1  LIG1        0.0799
      6 N          -5.1129   -1.0966   -0.0002 N.ar    1  LIG1       -0.2129
      7 H          -1.2930   -1.1764   -0.0004 H       1  LIG1        0.0620
      8 H          -2.5889   -3.3057   -0.0003 H       1  LIG1        0.0671
      9 O          -5.2877   -3.3293   -0.0002 O.3     1  LIG1       -0.4924
     10 H          -4.7815   -4.1487   -0.0002 H       1  LIG1        0.2937
     11 H          -2.4793    0.9884   -0.0004 H       1  LIG1        0.0639
     12 C          -6.6813    1.2244   -0.0003 C.ar    1  LIG1        0.2223
     13 C          -5.2630    1.2937   -0.0003 C.ar    1  LIG1        0.0618
     14 C          -4.7076    2.5722   -0.0002 C.ar    1  LIG1       -0.0454
     15 C          -5.4977    3.7083   -0.0001 C.ar    1  LIG1       -0.0347
     16 C          -6.8885    3.5464   -0.0001 C.ar    1  LIG1        0.0799
     17 N          -7.4274    2.3232   -0.0001 N.ar    1  LIG1       -0.2123
     18 H          -3.6327    2.6941   -0.0003 H       1  LIG1        0.0626
     19 O          -7.3444    0.0860   -0.0004 O.3     1  LIG1       -0.4919
     20 H          -6.6723   -0.6588   -0.0006 H       1  LIG1        0.2937
     21 H          -5.0395    4.6836   -0.0001 H       1  LIG1        0.0639
     22 C          -9.2510    4.4652    0.0004 C.ar    1  LIG1        0.2223
     23 C          -7.8421    4.6813    0.0000 C.ar    1  LIG1        0.0618
     24 C          -7.4210    6.0078   -0.0001 C.ar    1  LIG1       -0.0454
     25 C          -8.3276    7.0569   -0.0000 C.ar    1  LIG1       -0.0347
     26 C          -9.6879    6.7330    0.0003 C.ar    1  LIG1        0.0799
     27 N         -10.1122    5.4705    0.0005 N.ar    1  LIG1       -0.2123
     28 H          -6.3648    6.2416   -0.0004 H       1  LIG1        0.0626
     29 O          -9.7787    3.2536    0.0006 O.3     1  LIG1       -0.4919
     30 H          -9.0271    2.5906    0.0005 H       1  LIG1        0.2937
     31 H          -7.9995    8.0820   -0.0002 H       1  LIG1        0.0639
     32 C         -10.6100    9.1437    0.0004 C.ar    1  LIG1        0.2217
     33 C         -10.7874    7.7486    0.0005 C.ar    1  LIG1        0.0618
     34 C         -12.1090    7.3069    0.0009 C.ar    1  LIG1       -0.0460
     35 C         -13.1639    8.2137    0.0011 C.ar    1  LIG1       -0.0427
     36 C         -12.8561    9.5659    0.0010 C.ar    1  LIG1        0.0314
     37 N         -11.6021   10.0164    0.0006 N.ar    1  LIG1       -0.2209
     38 H         -12.2754    6.2374    0.0009 H       1  LIG1        0.0626
     39 H         -13.6327   10.3205    0.0011 H       1  LIG1        0.0831
     40 O          -9.3714    9.6842    0.0001 O.3     1  LIG1       -0.4919
     41 H          -9.4991   10.6430    0.0001 H       1  LIG1        0.2937
     42 H         -14.1917    7.8815    0.0014 H       1  LIG1        0.0633
@<TRIPOS>BOND
     1    20    19    1
     2     7     3    1
     3    28    24    1
     4    19    12    1
     5    11     4    1
     6     3     4   ar
     7     3     2   ar
     8     4     5   ar
     9     8     2    1
    10     2     1   ar
    11     5    13    1
    12     5     6   ar
    13    13    12   ar
    14    13    14   ar
    15    18    14    1
    16    12    17   ar
    17     1     6   ar
    18     1     9    1
    19    14    15   ar
    20    31    25    1
    21     9    10    1
    22    24    25   ar
    23    24    23   ar
    24    17    16   ar
    25    15    21    1
    26    15    16   ar
    27    16    23    1
    28    25    26   ar
    29    23    22   ar
    30    41    40    1
    31    40    32    1
    32    26    27   ar
    33    26    33    1
    34    22    27   ar
    35    22    29    1
    36    32    33   ar
    37    32    37   ar
    38    30    29    1
    39    33    34   ar
    40    37    36   ar
    41    34    38    1
    42    34    35   ar
    43    36    35   ar
    44    36    39    1
    45    35    42    1
