@<TRIPOS>MOLECULE
mol_data/opt/m06hf/geoms/mol2/6fd13df4ai-4di-.out
 50 53 0 0 0
SMALL
GASTEIGER

@<TRIPOS>ATOM
      1 C          -4.0305   -1.5148    1.4260 C.ar    1  LIG1        0.2129
      2 C          -2.6380   -1.3653    1.5496 C.ar    1  LIG1        0.0011
      3 C          -2.0767   -0.2067    1.0589 C.ar    1  LIG1       -0.0372
      4 C          -2.8874    0.7504    0.4340 C.ar    1  LIG1        0.0794
      5 C          -4.2499    0.4680    0.2969 C.ar    1  LIG1        0.1096
      6 N          -4.7965   -0.6356    0.8147 N.ar    1  LIG1       -0.2102
      7 H          -1.0178   -0.0132    1.1645 H       1  LIG1        0.0633
      8 H          -2.0355   -2.1214    2.0343 H       1  LIG1        0.0671
      9 O          -4.6795   -2.5805    1.9226 O.3     1  LIG1       -0.4924
     10 H          -4.0759   -3.1800    2.3740 H       1  LIG1        0.2937
     11 N          -1.7907    3.0238   -0.1368 N.1     1  LIG1       -0.1908
     12 C          -2.3061    2.0205    0.0744 C.1     1  LIG1        0.1014
     13 C          -5.2139    1.3563   -0.3718 C.ar    1  LIG1        0.0880
     14 C          -5.1363    2.2363   -1.4481 C.ar    1  LIG1        0.1204
     15 C          -6.4367    2.7707   -1.6308 C.ar    1  LIG1        0.1601
     16 C          -7.2661    2.2066   -0.6806 C.ar    1  LIG1        0.0903
     17 N          -6.4977    1.3437    0.0484 N.ar    1  LIG1       -0.3490
     18 H          -6.8089    0.7714    0.8225 H       1  LIG1        0.1661
     19 N          -3.1781    2.5865   -3.0892 N.1     1  LIG1       -0.1907
     20 C          -4.0366    2.4438   -2.3409 C.1     1  LIG1        0.1050
     21 O          -6.7612    3.6599   -2.6017 O.3     1  LIG1       -0.5034
     22 H          -7.6820    3.5350   -2.8623 H       1  LIG1        0.2923
     23 C          -9.2601    3.6839   -0.6107 C.ar    1  LIG1       -0.0519
     24 C         -10.6217    3.8653   -0.4033 C.ar    1  LIG1       -0.0531
     25 C          -8.7067    2.4100   -0.4570 C.ar    1  LIG1        0.0022
     26 C         -11.4374    2.7968   -0.0260 C.ar    1  LIG1       -0.0137
     27 H         -11.0595    4.8508   -0.5036 H       1  LIG1        0.0624
     28 C          -9.5322    1.3380   -0.1083 C.ar    1  LIG1       -0.0490
     29 C         -10.8957    1.5097    0.1200 C.ar    1  LIG1       -0.0421
     30 H          -9.1100    0.3413   -0.0399 H       1  LIG1        0.0627
     31 H          -8.6210    4.5233   -0.8567 H       1  LIG1        0.0624
     32 C         -11.7532    0.3127    0.4896 C.3     1  LIG1       -0.0391
     33 H         -11.2873   -0.6018    0.1239 H       1  LIG1        0.0278
     34 H         -12.7482    0.4015    0.0531 H       1  LIG1        0.0278
     35 H         -11.8523    0.2433    1.5746 H       1  LIG1        0.0278
     36 C         -13.4723    2.9430    1.4671 C.ar    1  LIG1        0.0595
     37 C         -14.8325    3.1940    1.6617 C.ar    1  LIG1       -0.0435
     38 C         -12.8936    3.0568    0.1977 C.ar    1  LIG1       -0.0000
     39 C         -15.6216    3.5650    0.5834 C.ar    1  LIG1       -0.0576
     40 H         -15.2535    3.0979    2.6533 H       1  LIG1        0.0631
     41 C         -13.7097    3.4399   -0.8674 C.ar    1  LIG1       -0.0499
     42 C         -15.0693    3.6966   -0.6941 C.ar    1  LIG1       -0.0498
     43 H         -13.2650    3.5269   -1.8518 H       1  LIG1        0.0627
     44 H         -16.6772    3.7571    0.7332 H       1  LIG1        0.0621
     45 N         -12.0296    2.2616    3.5166 N.1     1  LIG1       -0.1909
     46 C         -12.6568    2.5707    2.6064 C.1     1  LIG1        0.0998
     47 C         -15.9407    4.1208   -1.8613 C.3     1  LIG1       -0.0397
     48 H         -15.3990    4.0296   -2.8014 H       1  LIG1        0.0278
     49 H         -16.2501    5.1598   -1.7353 H       1  LIG1        0.0278
     50 H         -16.8355    3.4993   -1.9091 H       1  LIG1        0.0278
@<TRIPOS>BOND
     1    19    20    3
     2    22    21    1
     3    48    47    1
     4    21    15    1
     5    20    14    1
     6    50    47    1
     7    47    49    1
     8    47    42    1
     9    43    41    1
    10    15    14   ar
    11    15    16   ar
    12    14    13   ar
    13    41    42   ar
    14    41    38   ar
    15    31    23    1
    16    42    39   ar
    17    16    25    1
    18    16    17   ar
    19    23    25   ar
    20    23    24   ar
    21    27    24    1
    22    25    28   ar
    23    24    26   ar
    24    13    17   ar
    25    13     5    1
    26    11    12    3
    27    28    30    1
    28    28    29   ar
    29    26    29   ar
    30    26    38    1
    31    17    18    1
    32    34    32    1
    33    12     4    1
    34    29    32    1
    35    33    32    1
    36    38    36   ar
    37     5     4   ar
    38     5     6   ar
    39     4     3   ar
    40    32    35    1
    41    39    44    1
    42    39    37   ar
    43     6     1   ar
    44     3     7    1
    45     3     2   ar
    46     1     2   ar
    47     1     9    1
    48    36    37   ar
    49    36    46    1
    50     2     8    1
    51    37    40    1
    52     9    10    1
    53    46    45    3
