@<TRIPOS>MOLECULE
mol_data/opt/m06hf/geoms/mol2/6fd12di13hi12ie.out
 49 52 0 0 0
SMALL
GASTEIGER

@<TRIPOS>ATOM
      1 C          -4.1948   -2.0877    0.0357 C.ar    1  LIG1        0.2129
      2 C          -2.9382   -2.0666   -0.5975 C.ar    1  LIG1        0.0011
      3 C          -2.4892   -0.8632   -1.0956 C.ar    1  LIG1       -0.0371
      4 C          -3.2807    0.2816   -0.9413 C.ar    1  LIG1        0.0810
      5 C          -4.4923    0.1544   -0.2556 C.ar    1  LIG1        0.1284
      6 N          -4.9372   -1.0121    0.2056 N.ar    1  LIG1       -0.2086
      7 H          -1.5438   -0.7915   -1.6160 H       1  LIG1        0.0633
      8 H          -2.3522   -2.9697   -0.7009 H       1  LIG1        0.0671
      9 O          -4.7231   -3.2209    0.5235 O.3     1  LIG1       -0.4924
     10 H          -4.1381   -3.9718    0.3792 H       1  LIG1        0.2937
     11 N          -2.5264    2.4795   -2.0847 N.1     1  LIG1       -0.1908
     12 C          -2.8705    1.5216   -1.5551 C.1     1  LIG1        0.1014
     13 C          -5.3671    1.3144    0.0021 C.ar    1  LIG1        0.1728
     14 C          -5.1297    2.5871    0.4369 C.ar    1  LIG1        0.1025
     15 C          -6.4093    3.2302    0.5955 C.ar    1  LIG1        0.0149
     16 C          -7.3164    2.2849    0.2178 C.ar    1  LIG1        0.1578
     17 O          -6.6866    1.1320   -0.1318 O.2     1  LIG1       -0.4501
     18 N          -2.8720    3.6194    1.1468 N.1     1  LIG1       -0.1907
     19 C          -3.8647    3.1504    0.8123 C.1     1  LIG1        0.1033
     20 C          -6.6507    4.6072    1.1558 C.3     1  LIG1       -0.0348
     21 H          -7.7192    4.7771    1.2813 H       1  LIG1        0.0279
     22 H          -6.2437    5.3674    0.4865 H       1  LIG1        0.0279
     23 H          -6.1482    4.6979    2.1194 H       1  LIG1        0.0279
     24 C          -8.7658    2.2847    0.1355 C.ar    1  LIG1        0.1041
     25 C          -9.6453    3.2792   -0.2513 C.ar    1  LIG1        0.0569
     26 C         -10.9642    2.7593   -0.1265 C.ar    1  LIG1       -0.0008
     27 C         -10.8268    1.4493    0.3005 C.ar    1  LIG1        0.0876
     28 N          -9.5062    1.1766    0.4590 N.ar    1  LIG1       -0.3476
     29 H          -9.1241    0.2932    0.7606 H       1  LIG1        0.1661
     30 N          -9.3217    4.5898   -0.6453 N.pl3   1  LIG1       -0.3560
     31 H          -8.3973    4.6483   -1.0597 H       1  LIG1        0.1424
     32 H         -10.0074    4.9706   -1.2870 H       1  LIG1        0.1424
     33 C         -12.2391    3.5350   -0.3358 C.3     1  LIG1       -0.0358
     34 H         -13.0742    2.9999    0.1168 H       1  LIG1        0.0279
     35 H         -12.4586    3.6845   -1.3963 H       1  LIG1        0.0279
     36 H         -12.1545    4.5133    0.1410 H       1  LIG1        0.0279
     37 C         -11.8419    0.4365    0.5759 C.ar    1  LIG1        0.1553
     38 C         -12.9760    0.0701   -0.0760 C.ar    1  LIG1        0.0121
     39 C         -13.5315   -1.0099    0.7136 C.ar    1  LIG1        0.0659
     40 C         -12.6752   -1.2064    1.7503 C.ar    1  LIG1        0.1082
     41 O         -11.6537   -0.3395    1.6788 O.2     1  LIG1       -0.4599
     42 H         -12.6771   -1.9003    2.5721 H       1  LIG1        0.1042
     43 C         -13.5248    0.5914   -1.3758 C.3     1  LIG1       -0.0349
     44 H         -13.8192   -0.2487   -2.0052 H       1  LIG1        0.0279
     45 H         -12.7626    1.1779   -1.8881 H       1  LIG1        0.0279
     46 H         -14.4041    1.2146   -1.2043 H       1  LIG1        0.0279
     47 C         -14.7333   -1.7380    0.4336 C.1     1  LIG1       -0.0662
     48 C         -15.7433   -2.3376    0.1815 C.1     1  LIG1       -0.1138
     49 H         -16.6393   -2.8703   -0.0371 H       1  LIG1        0.1232
@<TRIPOS>BOND
     1    11    12    3
     2    44    43    1
     3    45    43    1
     4     7     3    1
     5    12     4    1
     6    35    33    1
     7    43    46    1
     8    43    38    1
     9    32    30    1
    10     3     4   ar
    11     3     2   ar
    12    31    30    1
    13     4     5   ar
    14     8     2    1
    15    30    25    1
    16     2     1   ar
    17    33    26    1
    18    33    34    1
    19    33    36    1
    20     5    13    1
    21     5     6   ar
    22    25    26   ar
    23    25    24   ar
    24    17    13   ar
    25    17    16   ar
    26    26    27   ar
    27    38    37   ar
    28    38    39   ar
    29    49    48    1
    30    13    14   ar
    31     1     6   ar
    32     1     9    1
    33    24    16    1
    34    24    28   ar
    35    48    47    3
    36    16    15   ar
    37    27    28   ar
    38    27    37    1
    39    10     9    1
    40    47    39    1
    41    14    15   ar
    42    14    19    1
    43    28    29    1
    44    22    20    1
    45    37    41   ar
    46    15    20    1
    47    39    40   ar
    48    19    18    3
    49    20    21    1
    50    20    23    1
    51    41    40   ar
    52    40    42    1
