@<TRIPOS>MOLECULE
mol_data/opt/m06hf/geoms/mol2/6fd4fe-6ii13lh.out
 55 58 0 0 0
SMALL
GASTEIGER

@<TRIPOS>ATOM
      1 C          -4.4747   -2.4758    0.3023 C.ar    1  LIG1        0.2129
      2 C          -3.0762   -2.5324    0.2017 C.ar    1  LIG1        0.0011
      3 C          -2.4001   -1.3386    0.0543 C.ar    1  LIG1       -0.0372
      4 C          -3.1183   -0.1402    0.0345 C.ar    1  LIG1        0.0780
      5 C          -4.5123   -0.1890    0.1823 C.ar    1  LIG1        0.0956
      6 N          -5.1586   -1.3466    0.2949 N.ar    1  LIG1       -0.2116
      7 H          -1.3242   -1.3180   -0.0554 H       1  LIG1        0.0633
      8 H          -2.5511   -3.4778    0.2237 H       1  LIG1        0.0671
      9 O          -5.2246   -3.5854    0.4148 O.3     1  LIG1       -0.4924
     10 H          -4.6769   -4.3775    0.4178 H       1  LIG1        0.2937
     11 N          -1.8237    2.0599   -0.4106 N.1     1  LIG1       -0.1908
     12 C          -2.4139    1.0982   -0.2002 C.1     1  LIG1        0.1013
     13 C          -5.0538    2.1697    0.9082 C.ar    1  LIG1        0.1267
     14 C          -5.8539    3.3078    0.8194 C.ar    1  LIG1       -0.0106
     15 C          -5.3647    1.0343    0.1544 C.ar    1  LIG1        0.0443
     16 C          -6.9806    3.3227    0.0046 C.ar    1  LIG1        0.0027
     17 H          -5.6151    4.1820    1.4137 H       1  LIG1        0.0661
     18 C          -6.5128    1.0356   -0.6325 C.ar    1  LIG1       -0.0330
     19 C          -7.3201    2.1690   -0.7230 C.ar    1  LIG1        0.0333
     20 H          -6.7698    0.1433   -1.1875 H       1  LIG1        0.0638
     21 O          -3.9987    2.1001    1.7600 O.3     1  LIG1       -0.5061
     22 H          -3.6013    2.9683    1.8924 H       1  LIG1        0.2922
     23 C          -8.4851    2.1548   -1.5755 C.1     1  LIG1       -0.0690
     24 C          -9.4535    2.1339   -2.2871 C.1     1  LIG1       -0.1139
     25 H         -10.3088    2.1213   -2.9221 H       1  LIG1        0.1232
     26 C          -9.0652    4.6372    0.5619 C.ar    1  LIG1        0.0467
     27 C          -7.8151    4.5591   -0.0697 C.ar    1  LIG1        0.0047
     28 C          -7.3688    5.6694   -0.7746 C.ar    1  LIG1       -0.0473
     29 C          -8.1268    6.8371   -0.8505 C.ar    1  LIG1       -0.0223
     30 C          -9.3385    6.8324   -0.1447 C.ar    1  LIG1        0.0939
     31 N          -9.7818    5.7520    0.5161 N.ar    1  LIG1       -0.2494
     32 H          -6.4209    5.6140   -1.2989 H       1  LIG1        0.0627
     33 C          -9.6519    3.4673    1.3237 C.3     1  LIG1       -0.0217
     34 H          -8.8934    2.9979    1.9513 H       1  LIG1        0.0293
     35 H         -10.0268    2.7209    0.6203 H       1  LIG1        0.0293
     36 H         -10.4706    3.8345    1.9385 H       1  LIG1        0.0293
     37 C          -7.6504    7.9931   -1.7050 C.3     1  LIG1       -0.0376
     38 H          -7.1806    8.7666   -1.0978 H       1  LIG1        0.0278
     39 H          -8.4903    8.4538   -2.2234 H       1  LIG1        0.0278
     40 H          -6.9305    7.6228   -2.4350 H       1  LIG1        0.0278
     41 C         -10.2817    7.9696   -0.0796 C.ar    1  LIG1        0.1093
     42 C         -10.2067    9.3474   -0.2234 C.ar    1  LIG1        0.1673
     43 C         -11.4945    9.8911    0.0288 C.ar    1  LIG1        0.0851
     44 C         -12.3208    8.8302    0.3252 C.ar    1  LIG1        0.0267
     45 N         -11.5729    7.6929    0.2584 N.ar    1  LIG1       -0.3549
     46 H         -11.8485    6.7505    0.4928 H       1  LIG1        0.1655
     47 H         -13.3658    8.8078    0.5802 H       1  LIG1        0.0827
     48 O          -9.1182   10.1304   -0.4981 O.3     1  LIG1       -0.4911
     49 C          -8.5627   10.7066    0.6849 C.3     1  LIG1        0.0790
     50 H          -9.3221   11.2975    1.1998 H       1  LIG1        0.0660
     51 H          -8.1944    9.9153    1.3422 H       1  LIG1        0.0660
     52 H          -7.7402   11.3422    0.3617 H       1  LIG1        0.0660
     53 N         -11.7525   11.2800    0.0264 N.pl3   1  LIG1       -0.3540
     54 H         -11.2712   11.7259   -0.7480 H       1  LIG1        0.1425
     55 H         -12.7422   11.4894   -0.0226 H       1  LIG1        0.1425
@<TRIPOS>BOND
     1    25    24    1
     2    40    37    1
     3    24    23    3
     4    39    37    1
     5    37    38    1
     6    37    29    1
     7    23    19    1
     8    32    28    1
     9    20    18    1
    10    29    28   ar
    11    29    30   ar
    12    28    27   ar
    13    54    53    1
    14    19    18   ar
    15    19    16   ar
    16    18    15   ar
    17    48    42    1
    18    48    49    1
    19    11    12    3
    20    42    41   ar
    21    42    43   ar
    22    12     4    1
    23    30    41    1
    24    30    31   ar
    25    41    45   ar
    26    27    16    1
    27    27    26   ar
    28     7     3    1
    29    55    53    1
    30    16    14   ar
    31    53    43    1
    32    43    44   ar
    33     4     3   ar
    34     4     5   ar
    35     3     2   ar
    36    15     5    1
    37    15    13   ar
    38     5     6   ar
    39     2     8    1
    40     2     1   ar
    41    45    44   ar
    42    45    46    1
    43     6     1   ar
    44     1     9    1
    45    44    47    1
    46    52    49    1
    47     9    10    1
    48    31    26   ar
    49    26    33    1
    50    35    33    1
    51    49    50    1
    52    49    51    1
    53    14    13   ar
    54    14    17    1
    55    13    21    1
    56    33    36    1
    57    33    34    1
    58    21    22    1
