@<TRIPOS>MOLECULE
mol_data/opt/m06hf/geoms/mol2/6fd6fd-6fd-6fd-.out
 46 49 0 0 0
SMALL
GASTEIGER

@<TRIPOS>ATOM
      1 C          -4.0768   -2.0012   -0.9958 C.ar    1  LIG1        0.2129
      2 C          -2.9775   -2.2618   -0.1603 C.ar    1  LIG1        0.0011
      3 C          -2.6384   -1.3018    0.7697 C.ar    1  LIG1       -0.0372
      4 C          -3.3727   -0.1128    0.8290 C.ar    1  LIG1        0.0781
      5 C          -4.4223    0.0655   -0.0798 C.ar    1  LIG1        0.0972
      6 N          -4.7665   -0.8758   -0.9537 N.ar    1  LIG1       -0.2116
      7 H          -1.8206   -1.4598    1.4599 H       1  LIG1        0.0633
      8 H          -2.4285   -3.1910   -0.2351 H       1  LIG1        0.0671
      9 O          -4.5058   -2.8882   -1.9058 O.3     1  LIG1       -0.4924
     10 H          -3.9740   -3.6911   -1.8956 H       1  LIG1        0.2937
     11 N          -2.8512    1.5844    2.7153 N.1     1  LIG1       -0.1908
     12 C          -3.0832    0.8522    1.8628 C.1     1  LIG1        0.1013
     13 C          -4.7278    2.5930   -0.0877 C.ar    1  LIG1        0.2224
     14 C          -5.2678    1.2919   -0.0932 C.ar    1  LIG1        0.0643
     15 C          -6.6426    1.1853   -0.1763 C.ar    1  LIG1       -0.0279
     16 C          -7.4259    2.3444   -0.1760 C.ar    1  LIG1        0.0787
     17 C          -6.7880    3.5868   -0.0995 C.ar    1  LIG1        0.0973
     18 N          -5.4630    3.6890   -0.0704 N.ar    1  LIG1       -0.2110
     19 H          -7.1027    0.2080   -0.2443 H       1  LIG1        0.0639
     20 O          -3.4036    2.7391   -0.1257 O.3     1  LIG1       -0.4919
     21 H          -3.1976    3.6816   -0.0504 H       1  LIG1        0.2937
     22 N         -10.0074    2.1721   -0.3193 N.1     1  LIG1       -0.1908
     23 C          -8.8642    2.2516   -0.2626 C.1     1  LIG1        0.1013
     24 C          -7.2956    5.9079   -0.9502 C.ar    1  LIG1        0.2224
     25 C          -7.5611    4.8590   -0.0443 C.ar    1  LIG1        0.0643
     26 C          -8.5518    5.0780    0.8917 C.ar    1  LIG1       -0.0279
     27 C          -9.2191    6.3095    0.9202 C.ar    1  LIG1        0.0787
     28 C          -8.8720    7.2843   -0.0180 C.ar    1  LIG1        0.0973
     29 N          -7.9305    7.0637   -0.9331 N.ar    1  LIG1       -0.2110
     30 H          -8.8061    4.3148    1.6165 H       1  LIG1        0.0639
     31 O          -6.3784    5.7267   -1.8993 O.3     1  LIG1       -0.4919
     32 H          -6.3389    6.5352   -2.4297 H       1  LIG1        0.2937
     33 N         -11.0256    6.7451    2.7260 N.1     1  LIG1       -0.1908
     34 C         -10.2239    6.5604    1.9260 C.1     1  LIG1        0.1013
     35 C          -8.7902    9.8019   -0.0637 C.ar    1  LIG1        0.2218
     36 C          -9.5468    8.6115   -0.0571 C.ar    1  LIG1        0.0643
     37 C         -10.9235    8.7366   -0.1002 C.ar    1  LIG1       -0.0285
     38 C         -11.4920   10.0135   -0.1660 C.ar    1  LIG1        0.0707
     39 C         -10.6490   11.1202   -0.1827 C.ar    1  LIG1        0.0488
     40 N          -9.3263   11.0083   -0.1277 N.ar    1  LIG1       -0.2196
     41 H         -11.5587    7.8599   -0.0924 H       1  LIG1        0.0639
     42 H         -11.0564   12.1215   -0.2406 H       1  LIG1        0.0844
     43 O          -7.4612    9.7266    0.0219 O.3     1  LIG1       -0.4919
     44 H          -7.1157   10.6305    0.0203 H       1  LIG1        0.2937
     45 N         -14.0593   10.3390   -0.2878 N.1     1  LIG1       -0.1908
     46 C         -12.9232   10.1916   -0.2305 C.1     1  LIG1        0.1007
@<TRIPOS>BOND
     1    32    31    1
     2     9    10    1
     3     9     1    1
     4    31    24    1
     5     1     6   ar
     6     1     2   ar
     7     6     5   ar
     8    24    29   ar
     9    24    25   ar
    10    29    28   ar
    11    22    23    3
    12    45    46    3
    13    23    16    1
    14    19    15    1
    15    42    39    1
    16     8     2    1
    17    46    38    1
    18    39    38   ar
    19    39    40   ar
    20    15    16   ar
    21    15    14   ar
    22    16    17   ar
    23    38    37   ar
    24     2     3   ar
    25    40    35   ar
    26    20    13    1
    27    20    21    1
    28    37    41    1
    29    37    36   ar
    30    17    18   ar
    31    17    25    1
    32    14    13   ar
    33    14     5    1
    34    13    18   ar
    35     5     4   ar
    36    35    36   ar
    37    35    43    1
    38    36    28    1
    39    25    26   ar
    40    28    27   ar
    41    44    43    1
    42     3     4   ar
    43     3     7    1
    44     4    12    1
    45    26    27   ar
    46    26    30    1
    47    27    34    1
    48    12    11    3
    49    34    33    3
