@<TRIPOS>MOLECULE
mol_data/opt/m06hf/geoms/mol2/6fd6fd6fd-6fd-.out
 46 49 0 0 0
SMALL
GASTEIGER

@<TRIPOS>ATOM
      1 C          -4.3346   -2.1565   -0.5232 C.ar    1  LIG1        0.2129
      2 C          -2.9660   -2.2605   -0.2392 C.ar    1  LIG1        0.0011
      3 C          -2.3140   -1.1043    0.1320 C.ar    1  LIG1       -0.0372
      4 C          -3.0151    0.1037    0.2385 C.ar    1  LIG1        0.0781
      5 C          -4.3961    0.1114   -0.0135 C.ar    1  LIG1        0.0972
      6 N          -4.9970   -1.0213   -0.4018 N.ar    1  LIG1       -0.2116
      7 H          -1.2511   -1.1116    0.3345 H       1  LIG1        0.0633
      8 H          -2.4435   -3.2024   -0.3300 H       1  LIG1        0.0671
      9 O          -5.0757   -3.1884   -0.9372 O.3     1  LIG1       -0.4924
     10 H          -4.5554   -3.9945   -1.0256 H       1  LIG1        0.2937
     11 N          -1.5863    2.1919    0.7912 N.1     1  LIG1       -0.1908
     12 C          -2.2484    1.2860    0.5494 C.1     1  LIG1        0.1013
     13 C          -6.5507    1.3143   -0.5672 C.ar    1  LIG1        0.2224
     14 C          -5.2812    1.2990    0.0892 C.ar    1  LIG1        0.0643
     15 C          -4.9561    2.4179    0.8465 C.ar    1  LIG1       -0.0279
     16 C          -5.7998    3.5248    0.8639 C.ar    1  LIG1        0.0787
     17 C          -6.9607    3.4859    0.0749 C.ar    1  LIG1        0.0973
     18 N          -7.3189    2.3976   -0.5868 N.ar    1  LIG1       -0.2110
     19 H          -4.0596    2.4488    1.4496 H       1  LIG1        0.0639
     20 O          -7.0365    0.2638   -1.1915 O.3     1  LIG1       -0.4919
     21 H          -6.4355   -0.5112   -1.0134 H       1  LIG1        0.2937
     22 N          -5.2771    5.4852    2.4740 N.1     1  LIG1       -0.1908
     23 C          -5.5068    4.6315    1.7422 C.1     1  LIG1        0.1013
     24 C          -7.4975    5.9605   -0.2212 C.ar    1  LIG1        0.2224
     25 C          -7.9099    4.6288   -0.0160 C.ar    1  LIG1        0.0643
     26 C          -9.2715    4.3968    0.0292 C.ar    1  LIG1       -0.0279
     27 C         -10.1597    5.4740   -0.0485 C.ar    1  LIG1        0.0787
     28 C          -9.6396    6.7674   -0.1762 C.ar    1  LIG1        0.0973
     29 N          -8.3315    6.9827   -0.2726 N.ar    1  LIG1       -0.2110
     30 H          -9.6381    3.3825    0.1191 H       1  LIG1        0.0639
     31 O          -6.2024    6.2123   -0.4031 O.3     1  LIG1       -0.4919
     32 H          -6.0811    7.1702   -0.4715 H       1  LIG1        0.2937
     33 N         -12.7131    5.0413    0.0444 N.1     1  LIG1       -0.1908
     34 C         -11.5837    5.2388   -0.0049 C.1     1  LIG1        0.1013
     35 C         -10.3935    8.9383   -1.2198 C.ar    1  LIG1        0.2218
     36 C         -10.5234    7.9661   -0.2062 C.ar    1  LIG1        0.0643
     37 C         -11.4954    8.1807    0.7543 C.ar    1  LIG1       -0.0285
     38 C         -12.2797    9.3375    0.6893 C.ar    1  LIG1        0.0707
     39 C         -12.0567   10.2372   -0.3480 C.ar    1  LIG1        0.0488
     40 N         -11.1337   10.0322   -1.2810 N.ar    1  LIG1       -0.2196
     41 H         -11.6463    7.4693    1.5560 H       1  LIG1        0.0639
     42 H         -12.6413   11.1453   -0.4257 H       1  LIG1        0.0844
     43 O          -9.4988    8.7524   -2.1906 O.3     1  LIG1       -0.4919
     44 H          -9.5729    9.4965   -2.8049 H       1  LIG1        0.2937
     45 N         -14.0985    9.8343    2.4663 N.1     1  LIG1       -0.1908
     46 C         -13.2943    9.6097    1.6797 C.1     1  LIG1        0.1007
@<TRIPOS>BOND
     1    44    43    1
     2    43    35    1
     3    40    35   ar
     4    40    39   ar
     5    35    36   ar
     6    20    21    1
     7    20    13    1
     8    10     9    1
     9     9     1    1
    10    18    13   ar
    11    18    17   ar
    12    13    14   ar
    13     1     6   ar
    14     1     2   ar
    15    32    31    1
    16    42    39    1
    17    31    24    1
    18     6     5   ar
    19    39    38   ar
    20     8     2    1
    21    29    24   ar
    22    29    28   ar
    23     2     3   ar
    24    24    25   ar
    25    36    28    1
    26    36    37   ar
    27    28    27   ar
    28    27    34    1
    29    27    26   ar
    30    25    26   ar
    31    25    17    1
    32     5    14    1
    33     5     4   ar
    34    34    33    3
    35    26    30    1
    36    17    16   ar
    37    14    15   ar
    38     3     4   ar
    39     3     7    1
    40     4    12    1
    41    12    11    3
    42    38    37   ar
    43    38    46    1
    44    37    41    1
    45    15    16   ar
    46    15    19    1
    47    16    23    1
    48    46    45    3
    49    23    22    3
