@<TRIPOS>MOLECULE
mol_data/opt/m06hf/geoms/mol2/6fd6fd.out
 24 25 0 0 0
SMALL
GASTEIGER

@<TRIPOS>ATOM
      1 C          -4.5145   -2.0826   -0.0001 C.ar    1  LIG1        0.2129
      2 C          -3.1173   -2.1542   -0.0001 C.ar    1  LIG1        0.0011
      3 C          -2.4392   -0.9544   -0.0001 C.ar    1  LIG1       -0.0372
      4 C          -3.1294    0.2647   -0.0002 C.ar    1  LIG1        0.0781
      5 C          -4.5379    0.2542   -0.0002 C.ar    1  LIG1        0.0972
      6 N          -5.1608   -0.9325   -0.0002 N.ar    1  LIG1       -0.2116
      7 H          -1.3571   -0.9363   -0.0001 H       1  LIG1        0.0633
      8 H          -2.5980   -3.1022   -0.0001 H       1  LIG1        0.0671
      9 O          -5.3049   -3.1609   -0.0001 O.3     1  LIG1       -0.4924
     10 H          -4.7952   -3.9787    0.0000 H       1  LIG1        0.2937
     11 N          -1.5710    2.3321   -0.0001 N.1     1  LIG1       -0.1908
     12 C          -2.3002    1.4452   -0.0001 C.1     1  LIG1        0.1013
     13 C          -6.8655    1.2711   -0.0001 C.ar    1  LIG1        0.2218
     14 C          -5.4399    1.4390   -0.0003 C.ar    1  LIG1        0.0643
     15 C          -4.9662    2.7495   -0.0006 C.ar    1  LIG1       -0.0285
     16 C          -5.8596    3.8134   -0.0006 C.ar    1  LIG1        0.0707
     17 C          -7.2294    3.5332   -0.0003 C.ar    1  LIG1        0.0488
     18 N          -7.7061    2.3063   -0.0000 N.ar    1  LIG1       -0.2196
     19 H          -3.9104    2.9725   -0.0008 H       1  LIG1        0.0639
     20 H          -7.9504    4.3423   -0.0002 H       1  LIG1        0.0844
     21 O          -7.4437    0.0931    0.0001 O.3     1  LIG1       -0.4919
     22 H          -6.7285   -0.6058    0.0000 H       1  LIG1        0.2937
     23 N          -5.0348    6.2693   -0.0010 N.1     1  LIG1       -0.1908
     24 C          -5.3947    5.1795   -0.0008 C.1     1  LIG1        0.1007
@<TRIPOS>BOND
     1    23    24    3
     2    19    15    1
     3    24    16    1
     4    15    16   ar
     5    15    14   ar
     6    16    17   ar
     7    14     5    1
     8    14    13   ar
     9    17    20    1
    10    17    18   ar
    11     5     6   ar
    12     5     4   ar
    13     6     1   ar
    14     4    12    1
    15     4     3   ar
    16    12    11    3
    17     3     2   ar
    18     3     7    1
    19     1     2   ar
    20     1     9    1
    21     2     8    1
    22     9    10    1
    23    13    18   ar
    24    13    21    1
    25    22    21    1
