@<TRIPOS>MOLECULE
mol_data/opt/m06hf/geoms/mol2/6fd6fd-6fd-6fd.out
 46 49 0 0 0
SMALL
GASTEIGER

@<TRIPOS>ATOM
      1 C          -4.3277   -2.1669   -0.5311 C.ar    1  LIG1        0.2129
      2 C          -2.9734   -2.2523   -0.1660 C.ar    1  LIG1        0.0011
      3 C          -2.3581   -1.1055    0.2905 C.ar    1  LIG1       -0.0372
      4 C          -3.0857    0.0880    0.3464 C.ar    1  LIG1        0.0781
      5 C          -4.4175    0.0730   -0.0823 C.ar    1  LIG1        0.0972
      6 N          -5.0171   -1.0408   -0.4917 N.ar    1  LIG1       -0.2116
      7 H          -1.3263   -1.1173    0.6147 H       1  LIG1        0.0633
      8 H          -2.4383   -3.1905   -0.2261 H       1  LIG1        0.0671
      9 O          -5.0219   -3.2349   -0.9502 O.3     1  LIG1       -0.4924
     10 H          -4.4762   -4.0287   -0.9627 H       1  LIG1        0.2937
     11 N          -1.9835    2.1843    1.3960 N.1     1  LIG1       -0.1908
     12 C          -2.4789    1.2702    0.9106 C.1     1  LIG1        0.1013
     13 C          -4.8697    2.5250   -0.5942 C.ar    1  LIG1        0.2224
     14 C          -5.2786    1.2884   -0.0555 C.ar    1  LIG1        0.0643
     15 C          -6.5579    1.2215    0.4595 C.ar    1  LIG1       -0.0279
     16 C          -7.3506    2.3743    0.4898 C.ar    1  LIG1        0.0787
     17 C          -6.8284    3.5616   -0.0308 C.ar    1  LIG1        0.0973
     18 N          -5.6151    3.6140   -0.5718 N.ar    1  LIG1       -0.2110
     19 H          -6.9338    0.2826    0.8450 H       1  LIG1        0.0639
     20 O          -3.6823    2.5999   -1.1930 O.3     1  LIG1       -0.4919
     21 H          -3.5112    3.5219   -1.4318 H       1  LIG1        0.2937
     22 N          -9.7210    2.3109    1.5348 N.1     1  LIG1       -0.1908
     23 C          -8.6696    2.3384    1.0759 C.1     1  LIG1        0.1013
     24 C          -7.0731    6.0161    0.5029 C.ar    1  LIG1        0.2224
     25 C          -7.6172    4.8260   -0.0290 C.ar    1  LIG1        0.0643
     26 C          -8.8899    4.9018   -0.5545 C.ar    1  LIG1       -0.0279
     27 C          -9.5767    6.1254   -0.5423 C.ar    1  LIG1        0.0787
     28 C          -8.9589    7.2400    0.0337 C.ar    1  LIG1        0.0973
     29 N          -7.7238    7.1642    0.5328 N.ar    1  LIG1       -0.2110
     30 H          -9.3597    4.0317   -0.9956 H       1  LIG1        0.0639
     31 O          -5.8537    5.9846    1.0306 O.3     1  LIG1       -0.4919
     32 H          -5.6513    6.8618    1.3865 H       1  LIG1        0.2937
     33 N         -11.8831    6.2950   -1.7123 N.1     1  LIG1       -0.1908
     34 C         -10.8642    6.2297   -1.1887 C.1     1  LIG1        0.1013
     35 C         -10.8897    8.8001    0.6358 C.ar    1  LIG1        0.2218
     36 C          -9.6063    8.5803    0.0873 C.ar    1  LIG1        0.0643
     37 C          -8.8973    9.6834   -0.3617 C.ar    1  LIG1       -0.0285
     38 C          -9.4936   10.9405   -0.3140 C.ar    1  LIG1        0.0707
     39 C         -10.7862   11.0395    0.2063 C.ar    1  LIG1        0.0488
     40 N         -11.4519    9.9987    0.6770 N.ar    1  LIG1       -0.2196
     41 H          -7.8945    9.5575   -0.7483 H       1  LIG1        0.0639
     42 H         -11.2838   12.0008    0.2500 H       1  LIG1        0.0844
     43 O         -11.6236    7.8292    1.1843 O.3     1  LIG1       -0.4919
     44 H         -11.1657    6.9807    1.1991 H       1  LIG1        0.2937
     45 N          -8.2490   13.0480   -1.1634 N.1     1  LIG1       -0.1908
     46 C          -8.8011   12.1151   -0.7876 C.1     1  LIG1        0.1007
@<TRIPOS>BOND
     1    33    34    3
     2    21    20    1
     3    20    13    1
     4    34    27    1
     5    45    46    3
     6    30    26    1
     7    10     9    1
     8     9     1    1
     9    46    38    1
    10    41    37    1
    11    13    18   ar
    12    13    14   ar
    13    18    17   ar
    14    26    27   ar
    15    26    25   ar
    16    27    28   ar
    17     1     6   ar
    18     1     2   ar
    19     6     5   ar
    20    37    38   ar
    21    37    36   ar
    22    38    39   ar
    23     8     2    1
    24     2     3   ar
    25     5    14    1
    26     5     4   ar
    27    14    15   ar
    28    17    25    1
    29    17    16   ar
    30    25    24   ar
    31    28    36    1
    32    28    29   ar
    33    36    35   ar
    34    39    42    1
    35    39    40   ar
    36     3     4   ar
    37     3     7    1
    38     4    12    1
    39    15    16   ar
    40    15    19    1
    41    16    23    1
    42    24    29   ar
    43    24    31    1
    44    35    40   ar
    45    35    43    1
    46    12    11    3
    47    31    32    1
    48    23    22    3
    49    43    44    1
