@<TRIPOS>MOLECULE
mol_data/opt/m06hf/geoms/mol2/6fd6fd6fd6fd.out
 46 49 0 0 0
SMALL
GASTEIGER

@<TRIPOS>ATOM
      1 C          -4.6501   -2.2617   -0.0003 C.ar    1  LIG1        0.2129
      2 C          -3.2674   -2.4822   -0.0003 C.ar    1  LIG1        0.0011
      3 C          -2.4596   -1.3668   -0.0002 C.ar    1  LIG1       -0.0372
      4 C          -3.0138   -0.0787   -0.0002 C.ar    1  LIG1        0.0781
      5 C          -4.4105    0.0604   -0.0003 C.ar    1  LIG1        0.0972
      6 N          -5.1670   -1.0468   -0.0003 N.ar    1  LIG1       -0.2116
      7 H          -1.3822   -1.4684   -0.0002 H       1  LIG1        0.0633
      8 H          -2.8565   -3.4823   -0.0004 H       1  LIG1        0.0671
      9 O          -5.5528   -3.2440   -0.0004 O.3     1  LIG1       -0.4924
     10 H          -5.1431   -4.1165   -0.0004 H       1  LIG1        0.2937
     11 N          -1.2768    1.8406    0.0001 N.1     1  LIG1       -0.1908
     12 C          -2.0763    1.0172   -0.0001 C.1     1  LIG1        0.1013
     13 C          -6.6086    1.3110   -0.0000 C.ar    1  LIG1        0.2224
     14 C          -5.1794    1.3348   -0.0003 C.ar    1  LIG1        0.0643
     15 C          -4.6027    2.5974   -0.0005 C.ar    1  LIG1       -0.0279
     16 C          -5.3707    3.7632   -0.0005 C.ar    1  LIG1        0.0787
     17 C          -6.7737    3.6557   -0.0001 C.ar    1  LIG1        0.0973
     18 N          -7.3149    2.4360    0.0000 N.ar    1  LIG1       -0.2110
     19 H          -3.5304    2.7236   -0.0008 H       1  LIG1        0.0639
     20 O          -7.3183    0.2141    0.0001 O.3     1  LIG1       -0.4919
     21 H          -6.6778   -0.5644   -0.0001 H       1  LIG1        0.2937
     22 N          -4.0096    5.9651   -0.0010 N.1     1  LIG1       -0.1908
     23 C          -4.6411    5.0066   -0.0008 C.1     1  LIG1        0.1013
     24 C          -9.1554    4.4884    0.0005 C.ar    1  LIG1        0.2224
     25 C          -7.7546    4.7691   -0.0000 C.ar    1  LIG1        0.0643
     26 C          -7.4156    6.1168   -0.0004 C.ar    1  LIG1       -0.0279
     27 C          -8.3806    7.1232   -0.0002 C.ar    1  LIG1        0.0787
     28 C          -9.7463    6.7662    0.0003 C.ar    1  LIG1        0.0973
     29 N         -10.0529    5.4685    0.0006 N.ar    1  LIG1       -0.2110
     30 H          -6.3824    6.4307   -0.0008 H       1  LIG1        0.0639
     31 O          -9.6528    3.2815    0.0008 O.3     1  LIG1       -0.4919
     32 H          -8.8762    2.6329    0.0007 H       1  LIG1        0.2937
     33 N          -7.4059    9.5216   -0.0013 N.1     1  LIG1       -0.1908
     34 C          -7.8737    8.4734   -0.0008 C.1     1  LIG1        0.1013
     35 C         -12.2500    7.1623    0.0008 C.ar    1  LIG1        0.2218
     36 C         -10.9117    7.6876    0.0006 C.ar    1  LIG1        0.0643
     37 C         -10.7837    9.0757    0.0008 C.ar    1  LIG1       -0.0285
     38 C         -11.9174    9.8784    0.0011 C.ar    1  LIG1        0.0707
     39 C         -13.1725    9.2596    0.0011 C.ar    1  LIG1        0.0488
     40 N         -13.3259    7.9532    0.0010 N.ar    1  LIG1       -0.2196
     41 H          -9.8184    9.5575    0.0008 H       1  LIG1        0.0639
     42 H         -14.0740    9.8611    0.0013 H       1  LIG1        0.0844
     43 O         -12.5078    5.8789    0.0008 O.3     1  LIG1       -0.4919
     44 H         -11.6306    5.3869    0.0008 H       1  LIG1        0.2937
     45 N         -11.7585   12.4636    0.0015 N.1     1  LIG1       -0.1908
     46 C         -11.8193   11.3178    0.0013 C.1     1  LIG1        0.1007
@<TRIPOS>BOND
     1    33    34    3
     2    22    23    3
     3    19    15    1
     4    30    26    1
     5    23    16    1
     6    34    27    1
     7    15    16   ar
     8    15    14   ar
     9    16    17   ar
    10     9    10    1
    11     9     1    1
    12    26    27   ar
    13    26    25   ar
    14     8     2    1
    15     1     6   ar
    16     1     2   ar
    17     6     5   ar
    18     2     3   ar
    19    14     5    1
    20    14    13   ar
    21     5     4   ar
    22     3     4   ar
    23     3     7    1
    24    27    28   ar
    25     4    12    1
    26    17    25    1
    27    17    18   ar
    28    21    20    1
    29    12    11    3
    30    13    18   ar
    31    13    20    1
    32    25    24   ar
    33    28    29   ar
    34    28    36    1
    35    24    29   ar
    36    24    31    1
    37    36    35   ar
    38    36    37   ar
    39    32    31    1
    40    43    44    1
    41    43    35    1
    42    35    40   ar
    43    41    37    1
    44    37    38   ar
    45    40    39   ar
    46    38    39   ar
    47    38    46    1
    48    39    42    1
    49    46    45    3
