@<TRIPOS>MOLECULE
mol_data/opt/m06hf/geoms/mol2/6fd6ed13ei-12ai6ed12fd12ah4ld.out
 93 100 0 0 0
SMALL
GASTEIGER

@<TRIPOS>ATOM
      1 C          -5.5107   -3.0198   -0.1213 C.ar    1  LIG1        0.2129
      2 C          -4.1658   -3.1777    0.2467 C.ar    1  LIG1        0.0011
      3 C          -3.4355   -2.0352    0.4955 C.ar    1  LIG1       -0.0372
      4 C          -4.0571   -0.7882    0.3726 C.ar    1  LIG1        0.0780
      5 C          -5.4035   -0.7392   -0.0095 C.ar    1  LIG1        0.0948
      6 N          -6.1006   -1.8468   -0.2492 N.ar    1  LIG1       -0.2116
      7 H          -2.3967   -2.0897    0.7906 H       1  LIG1        0.0633
      8 H          -3.7204   -4.1594    0.3355 H       1  LIG1        0.0671
      9 O          -6.3045   -4.0770   -0.3792 O.3     1  LIG1       -0.4924
     10 H          -5.8185   -4.9057   -0.3103 H       1  LIG1        0.2937
     11 N          -2.6857    1.3501    0.8855 N.1     1  LIG1       -0.1908
     12 C          -3.3088    0.4136    0.6593 C.1     1  LIG1        0.1013
     13 C          -7.3118    0.8566    0.4791 C.ar    1  LIG1        0.1231
     14 C          -6.1013    0.5690   -0.1731 C.ar    1  LIG1        0.0368
     15 C          -5.5699    1.5512   -0.9987 C.ar    1  LIG1       -0.0303
     16 C          -6.2291    2.7694   -1.1296 C.ar    1  LIG1        0.0798
     17 C          -7.3883    2.9980   -0.3698 C.ar    1  LIG1        0.1070
     18 N          -7.9105    2.0404    0.3975 N.ar    1  LIG1       -0.2350
     19 H          -4.6660    1.3703   -1.5668 H       1  LIG1        0.0638
     20 C          -7.9806   -0.1314    1.3007 C.1     1  LIG1       -0.0491
     21 C          -8.5739   -0.9297    1.9738 C.1     1  LIG1       -0.1124
     22 H          -9.1075   -1.6426    2.5599 H       1  LIG1        0.1232
     23 N          -5.3460    4.3853   -2.9510 N.1     1  LIG1       -0.1908
     24 C          -5.7497    3.7090   -2.1168 C.1     1  LIG1        0.1014
     25 C          -8.1161    4.2730   -0.3825 C.ar    1  LIG1        0.0826
     26 C          -7.6885    5.5996   -0.3512 C.ar    1  LIG1        0.0550
     27 C          -8.8470    6.4214   -0.2596 C.ar    1  LIG1       -0.0061
     28 C          -9.9259    5.5567   -0.2338 C.ar    1  LIG1        0.0867
     29 N          -9.4662    4.2763   -0.3003 N.ar    1  LIG1       -0.3493
     30 H         -10.0520    3.4460   -0.3017 H       1  LIG1        0.1661
     31 C          -6.3355    6.0651   -0.3027 C.1     1  LIG1       -0.0672
     32 C          -5.2053    6.4712   -0.2470 C.1     1  LIG1       -0.1138
     33 H          -4.1973    6.8151   -0.2151 H       1  LIG1        0.1232
     34 C          -8.8774    7.9240   -0.1713 C.3     1  LIG1       -0.0364
     35 H          -9.2152    8.2457    0.8160 H       1  LIG1        0.0279
     36 H          -9.5487    8.3380   -0.9257 H       1  LIG1        0.0279
     37 H          -7.8747    8.3139   -0.3408 H       1  LIG1        0.0279
     38 C         -11.3564    5.7739   -0.0862 C.ar    1  LIG1        0.1523
     39 C         -12.1845    6.8185    0.2021 C.ar    1  LIG1       -0.0109
     40 C         -13.5071    6.2642    0.3340 C.ar    1  LIG1       -0.0040
     41 C         -13.3652    4.9237    0.1077 C.ar    1  LIG1        0.1413
     42 O         -12.0737    4.6404   -0.1626 O.2     1  LIG1       -0.4530
     43 H         -11.9041    7.8482    0.3442 H       1  LIG1        0.0659
     44 C         -14.7569    7.0243    0.7025 C.3     1  LIG1       -0.0361
     45 H         -15.4482    6.3858    1.2532 H       1  LIG1        0.0279
     46 H         -15.2589    7.4047   -0.1891 H       1  LIG1        0.0279
     47 H         -14.4938    7.8717    1.3345 H       1  LIG1        0.0279
     48 C         -13.7990    2.4729    0.4437 C.ar    1  LIG1        0.1246
     49 C         -14.2664    3.7703    0.1225 C.ar    1  LIG1        0.0526
     50 C         -15.6087    3.8877   -0.2279 C.ar    1  LIG1       -0.0288
     51 C         -16.4287    2.7596   -0.2585 C.ar    1  LIG1        0.0816
     52 C         -15.8684    1.5188    0.0699 C.ar    1  LIG1        0.1284
     53 N         -14.5897    1.4090    0.4149 N.ar    1  LIG1       -0.2332
     54 H         -16.0127    4.8431   -0.5343 H       1  LIG1        0.0639
     55 C         -12.4281    2.1793    0.8205 C.1     1  LIG1       -0.0491
     56 C         -11.3110    1.8526    1.1251 C.1     1  LIG1       -0.1124
     57 H         -10.3012    1.5838    1.3649 H       1  LIG1        0.1232
     58 N         -18.8546    3.0099   -1.1359 N.1     1  LIG1       -0.1908
     59 C         -17.7881    2.8828   -0.7320 C.1     1  LIG1        0.1014
     60 C         -16.5573    0.2215   -0.0146 C.ar    1  LIG1        0.1977
     61 C         -17.8139   -0.2876    0.1489 C.ar    1  LIG1        0.1827
     62 C         -17.6931   -1.7150   -0.0303 C.ar    1  LIG1        0.1425
     63 C         -16.3645   -1.9518   -0.2762 C.ar    1  LIG1        0.1917
     64 O         -15.7075   -0.8040   -0.2666 O.2     1  LIG1       -0.4450
     65 O         -18.9171    0.3958    0.4885 O.3     1  LIG1       -0.5023
     66 H         -19.7144   -0.1259    0.3369 H       1  LIG1        0.2923
     67 N         -19.6252   -3.4086    0.1626 N.1     1  LIG1       -0.1906
     68 C         -18.7510   -2.6689    0.0739 C.1     1  LIG1        0.1068
     69 C         -15.5105   -3.1076   -0.5048 C.ar    1  LIG1        0.1738
     70 C         -15.6625   -4.4440   -0.7071 C.ar    1  LIG1        0.0087
     71 C         -14.3284   -4.9709   -0.8665 C.ar    1  LIG1        0.0718
     72 C         -13.4776   -3.8963   -0.7307 C.ar    1  LIG1        0.1599
     73 O         -14.2141   -2.7811   -0.5083 O.2     1  LIG1       -0.4497
     74 H         -16.5855   -4.9991   -0.7471 H       1  LIG1        0.0675
     75 N         -14.0392   -6.3153   -1.0697 N.pl3   1  LIG1       -0.3550
     76 H         -14.7105   -6.7920   -1.6556 H       1  LIG1        0.1424
     77 H         -13.0762   -6.4883   -1.3299 H       1  LIG1        0.1424
     78 C         -11.0386   -4.5733   -0.6208 C.ar    1  LIG1        0.1309
     79 C          -9.6888   -4.2318   -0.6588 C.ar    1  LIG1       -0.0180
     80 C         -12.0360   -3.6086   -0.7984 C.ar    1  LIG1        0.0619
     81 C          -9.3007   -2.9169   -0.8729 C.ar    1  LIG1       -0.0409
     82 H          -8.9535   -5.0113   -0.5133 H       1  LIG1        0.0655
     83 C         -11.6441   -2.2803   -1.0094 C.ar    1  LIG1       -0.0301
     84 C         -10.2939   -1.9496   -1.0499 C.ar    1  LIG1        0.0527
     85 H         -12.3945   -1.5108   -1.1295 H       1  LIG1        0.0639
     86 H          -8.2559   -2.6339   -0.8870 H       1  LIG1        0.0631
     87 O         -11.3842   -5.8840   -0.3963 O.3     1  LIG1       -0.4944
     88 C         -11.6918   -6.1657    0.9766 C.3     1  LIG1        0.0788
     89 H         -12.0060   -7.2051    1.0089 H       1  LIG1        0.0660
     90 H         -10.7991   -6.0118    1.5856 H       1  LIG1        0.0660
     91 H         -12.5026   -5.5209    1.3180 H       1  LIG1        0.0660
     92 N          -9.6230    0.5159   -1.5309 N.1     1  LIG1       -0.1909
     93 C          -9.9146   -0.5721   -1.3060 C.1     1  LIG1        0.0992
@<TRIPOS>BOND
     1    23    24    3
     2    24    16    1
     3    76    75    1
     4    19    15    1
     5    92    93    3
     6    77    75    1
     7    93    84    1
     8    58    59    3
     9    16    15   ar
    10    16    17   ar
    11    85    83    1
    12    75    71    1
    13    84    83   ar
    14    84    81   ar
    15    83    80   ar
    16    15    14   ar
    17    36    34    1
    18    86    81    1
    19    81    79   ar
    20    71    72   ar
    21    71    70   ar
    22    80    72    1
    23    80    78   ar
    24    74    70    1
    25    59    51    1
    26    72    73   ar
    27    70    69   ar
    28    79    78   ar
    29    79    82    1
    30    78    87    1
    31    54    50    1
    32    73    69   ar
    33    69    63    1
    34    87    88    1
    35    25    17    1
    36    25    26   ar
    37    25    29   ar
    38     9    10    1
    39     9     1    1
    40    17    18   ar
    41    26    31    1
    42    26    27   ar
    43    37    34    1
    44    31    32    3
    45    30    29    1
    46    29    28   ar
    47    63    64   ar
    48    63    62   ar
    49    64    60   ar
    50    27    28   ar
    51    27    34    1
    52    51    50   ar
    53    51    52   ar
    54     6     1   ar
    55     6     5   ar
    56    32    33    1
    57    28    38    1
    58    50    49   ar
    59    46    44    1
    60    14     5    1
    61    14    13   ar
    62    34    35    1
    63    42    38   ar
    64    42    41   ar
    65     1     2   ar
    66    38    39   ar
    67    62    68    1
    68    62    61   ar
    69    60    52    1
    70    60    61   ar
    71     5     4   ar
    72    52    53   ar
    73    68    67    3
    74    41    49    1
    75    41    40   ar
    76    49    48   ar
    77    61    65    1
    78    39    40   ar
    79    39    43    1
    80     2     8    1
    81     2     3   ar
    82    40    44    1
    83    66    65    1
    84     4     3   ar
    85     4    12    1
    86    18    13   ar
    87    53    48   ar
    88    48    55    1
    89    13    20    1
    90     3     7    1
    91    12    11    3
    92    44    45    1
    93    44    47    1
    94    55    56    3
    95    88    89    1
    96    88    91    1
    97    88    90    1
    98    56    57    1
    99    20    21    3
   100    21    22    1
