@<TRIPOS>MOLECULE
mol_data/opt/m06hf/geoms/mol2/6fd6fd6fd-6fd.out
 46 49 0 0 0
SMALL
GASTEIGER

@<TRIPOS>ATOM
      1 C          -4.4753   -2.2348    0.0016 C.ar    1  LIG1        0.2129
      2 C          -3.0832   -2.3430    0.1232 C.ar    1  LIG1        0.0011
      3 C          -2.3719   -1.1681    0.2385 C.ar    1  LIG1       -0.0372
      4 C          -3.0303    0.0683    0.2073 C.ar    1  LIG1        0.0781
      5 C          -4.4223    0.0906    0.0325 C.ar    1  LIG1        0.0972
      6 N          -5.0903   -1.0675   -0.0461 N.ar    1  LIG1       -0.2116
      7 H          -1.2975   -1.1844    0.3658 H       1  LIG1        0.0633
      8 H          -2.5946   -3.3068    0.1462 H       1  LIG1        0.0671
      9 O          -5.2891   -3.2911   -0.0747 O.3     1  LIG1       -0.4924
     10 H          -4.8068   -4.1239   -0.0251 H       1  LIG1        0.2937
     11 N          -1.5405    2.1533    0.5808 N.1     1  LIG1       -0.1908
     12 C          -2.2269    1.2494    0.4105 C.1     1  LIG1        0.1013
     13 C          -6.6715    1.2396    0.1679 C.ar    1  LIG1        0.2224
     14 C          -5.2611    1.3139   -0.0555 C.ar    1  LIG1        0.0643
     15 C          -4.7462    2.5585   -0.3969 C.ar    1  LIG1       -0.0279
     16 C          -5.5721    3.6798   -0.4168 C.ar    1  LIG1        0.0787
     17 C          -6.9183    3.5151   -0.0595 C.ar    1  LIG1        0.0973
     18 N          -7.4371    2.3252    0.1942 N.ar    1  LIG1       -0.2110
     19 H          -3.7079    2.6826   -0.6698 H       1  LIG1        0.0639
     20 O          -7.2991    0.1013    0.3605 O.3     1  LIG1       -0.4919
     21 H          -6.6522   -0.6416    0.2018 H       1  LIG1        0.2937
     22 N          -4.6377    5.9347   -1.2822 N.1     1  LIG1       -0.1908
     23 C          -5.0542    4.9450   -0.8778 C.1     1  LIG1        0.1013
     24 C          -7.6104    5.8790    0.6100 C.ar    1  LIG1        0.2224
     25 C          -7.8852    4.6474   -0.0188 C.ar    1  LIG1        0.0643
     26 C          -9.1410    4.4935   -0.5710 C.ar    1  LIG1       -0.0279
     27 C         -10.0486    5.5599   -0.5397 C.ar    1  LIG1        0.0787
     28 C          -9.6681    6.7518    0.0909 C.ar    1  LIG1        0.0973
     29 N          -8.4656    6.8856    0.6489 N.ar    1  LIG1       -0.2110
     30 H          -9.4084    3.5541   -1.0381 H       1  LIG1        0.0639
     31 O          -6.4476    6.0329    1.2366 O.3     1  LIG1       -0.4919
     32 H          -6.3820    6.9430    1.5598 H       1  LIG1        0.2937
     33 N         -12.3324    5.3418   -1.7465 N.1     1  LIG1       -0.1908
     34 C         -11.3226    5.4437   -1.2109 C.1     1  LIG1        0.1013
     35 C         -11.8663    7.9047    0.6810 C.ar    1  LIG1        0.2218
     36 C         -10.5580    7.9459    0.1514 C.ar    1  LIG1        0.0643
     37 C         -10.0665    9.1721   -0.2679 C.ar    1  LIG1       -0.0285
     38 C         -10.8950   10.2901   -0.2075 C.ar    1  LIG1        0.0707
     39 C         -12.1891   10.1288    0.2925 C.ar    1  LIG1        0.0488
     40 N         -12.6502    8.9703    0.7337 N.ar    1  LIG1       -0.2196
     41 H          -9.0529    9.2489   -0.6398 H       1  LIG1        0.0639
     42 H         -12.8630   10.9755    0.3442 H       1  LIG1        0.0844
     43 O         -12.4045    6.7967    1.1985 O.3     1  LIG1       -0.4919
     44 H         -11.7917    6.0524    1.1900 H       1  LIG1        0.2937
     45 N         -10.0746   12.6240   -0.9786 N.1     1  LIG1       -0.1908
     46 C         -10.4371   11.5889   -0.6408 C.1     1  LIG1        0.1007
@<TRIPOS>BOND
     1    33    34    3
     2    22    23    3
     3    34    27    1
     4    30    26    1
     5    45    46    3
     6    23    16    1
     7    19    15    1
     8    46    38    1
     9    41    37    1
    10    26    27   ar
    11    26    25   ar
    12    27    28   ar
    13    16    15   ar
    14    16    17   ar
    15    15    14   ar
    16    37    38   ar
    17    37    36   ar
    18    38    39   ar
    19     9    10    1
    20     9     1    1
    21    17    25    1
    22    17    18   ar
    23    14     5    1
    24    14    13   ar
    25     6     1   ar
    26     6     5   ar
    27    25    24   ar
    28     1     2   ar
    29     5     4   ar
    30    28    36    1
    31    28    29   ar
    32     2     8    1
    33     2     3   ar
    34    36    35   ar
    35    13    18   ar
    36    13    20    1
    37    21    20    1
    38     4     3   ar
    39     4    12    1
    40     3     7    1
    41    39    42    1
    42    39    40   ar
    43    12    11    3
    44    24    29   ar
    45    24    31    1
    46    35    40   ar
    47    35    43    1
    48    44    43    1
    49    31    32    1
