@<TRIPOS>MOLECULE
mol_data/opt/m06hf/geoms/mol2/6fd6fd-6fd.out
 35 37 0 0 0
SMALL
GASTEIGER

@<TRIPOS>ATOM
      1 C          -4.1609   -1.9152   -0.9857 C.ar    1  LIG1        0.2129
      2 C          -3.0120   -2.1574   -0.2142 C.ar    1  LIG1        0.0011
      3 C          -2.6264   -1.1856    0.6847 C.ar    1  LIG1       -0.0372
      4 C          -3.3659   -0.0014    0.7758 C.ar    1  LIG1        0.0781
      5 C          -4.4676    0.1584   -0.0719 C.ar    1  LIG1        0.0972
      6 N          -4.8557   -0.7940   -0.9143 N.ar    1  LIG1       -0.2116
      7 H          -1.7680   -1.3299    1.3267 H       1  LIG1        0.0633
      8 H          -2.4598   -3.0822   -0.3128 H       1  LIG1        0.0671
      9 O          -4.6365   -2.8146   -1.8583 O.3     1  LIG1       -0.4924
     10 H          -4.0971   -3.6125   -1.8751 H       1  LIG1        0.2937
     11 N          -2.7566    1.7269    2.6066 N.1     1  LIG1       -0.1908
     12 C          -3.0264    0.9786    1.7797 C.1     1  LIG1        0.1013
     13 C          -4.7975    2.6858   -0.0839 C.ar    1  LIG1        0.2224
     14 C          -5.3233    1.3777   -0.0502 C.ar    1  LIG1        0.0643
     15 C          -6.6978    1.2597   -0.0782 C.ar    1  LIG1       -0.0279
     16 C          -7.4952    2.4118   -0.0407 C.ar    1  LIG1        0.0787
     17 C          -6.8699    3.6639    0.0298 C.ar    1  LIG1        0.0973
     18 N          -5.5428    3.7737   -0.0229 N.ar    1  LIG1       -0.2110
     19 H          -7.1513    0.2787   -0.1393 H       1  LIG1        0.0639
     20 O          -3.4818    2.8423   -0.2080 O.3     1  LIG1       -0.4919
     21 H          -3.2685    3.7833   -0.1315 H       1  LIG1        0.2937
     22 N         -10.0723    2.1868   -0.1974 N.1     1  LIG1       -0.1908
     23 C          -8.9322    2.2952   -0.1299 C.1     1  LIG1        0.1013
     24 C          -8.6289    5.1896    1.0769 C.ar    1  LIG1        0.2218
     25 C          -7.6323    4.9414    0.1061 C.ar    1  LIG1        0.0643
     26 C          -7.3106    5.9688   -0.7672 C.ar    1  LIG1       -0.0285
     27 C          -8.0164    7.1669   -0.6956 C.ar    1  LIG1        0.0707
     28 C          -9.0171    7.2886    0.2719 C.ar    1  LIG1        0.0488
     29 N          -9.3005    6.3291    1.1366 N.ar    1  LIG1       -0.2196
     30 H          -6.5229    5.8286   -1.4958 H       1  LIG1        0.0639
     31 H          -9.5946    8.2019    0.3475 H       1  LIG1        0.0844
     32 O          -8.9492    4.3104    2.0299 O.3     1  LIG1       -0.4919
     33 H          -8.4074    3.5139    1.9897 H       1  LIG1        0.2937
     34 N          -7.4949    9.1309   -2.3028 N.1     1  LIG1       -0.1908
     35 C          -7.7273    8.2605   -1.5924 C.1     1  LIG1        0.1007
@<TRIPOS>BOND
     1    34    35    3
     2    10     9    1
     3     9     1    1
     4    35    27    1
     5    30    26    1
     6     1     6   ar
     7     1     2   ar
     8     6     5   ar
     9    26    27   ar
    10    26    25   ar
    11    27    28   ar
    12     8     2    1
    13     2     3   ar
    14    20    21    1
    15    20    13    1
    16    22    23    3
    17    19    15    1
    18    23    16    1
    19    13    14   ar
    20    13    18   ar
    21    15    14   ar
    22    15    16   ar
    23     5    14    1
    24     5     4   ar
    25    16    17   ar
    26    18    17   ar
    27    17    25    1
    28    25    24   ar
    29    28    31    1
    30    28    29   ar
    31     3     4   ar
    32     3     7    1
    33     4    12    1
    34    24    29   ar
    35    24    32    1
    36    12    11    3
    37    33    32    1
