@<TRIPOS>MOLECULE
mol_data/opt/m06hf/geoms/mol2/6fd6fd6fd.out
 35 37 0 0 0
SMALL
GASTEIGER

@<TRIPOS>ATOM
      1 C          -4.5493   -2.1587    0.0000 C.ar    1  LIG1        0.2129
      2 C          -3.1571   -2.3066   -0.0001 C.ar    1  LIG1        0.0011
      3 C          -2.4107   -1.1481   -0.0003 C.ar    1  LIG1       -0.0372
      4 C          -3.0316    0.1081   -0.0003 C.ar    1  LIG1        0.0781
      5 C          -4.4357    0.1738   -0.0002 C.ar    1  LIG1        0.0972
      6 N          -5.1298   -0.9730   -0.0001 N.ar    1  LIG1       -0.2116
      7 H          -1.3295   -1.1908   -0.0004 H       1  LIG1        0.0633
      8 H          -2.6935   -3.2830   -0.0001 H       1  LIG1        0.0671
      9 O          -5.4007   -3.1869    0.0002 O.3     1  LIG1       -0.4924
     10 H          -4.9450   -4.0362    0.0002 H       1  LIG1        0.2937
     11 N          -1.3964    2.1152   -0.0006 N.1     1  LIG1       -0.1908
     12 C          -2.1525    1.2513   -0.0005 C.1     1  LIG1        0.1013
     13 C          -6.6959    1.3061   -0.0001 C.ar    1  LIG1        0.2224
     14 C          -5.2715    1.4035   -0.0003 C.ar    1  LIG1        0.0643
     15 C          -4.7643    2.6968   -0.0004 C.ar    1  LIG1       -0.0279
     16 C          -5.5923    3.8189   -0.0004 C.ar    1  LIG1        0.0787
     17 C          -6.9916    3.6404   -0.0002 C.ar    1  LIG1        0.0973
     18 N          -7.4606    2.3914   -0.0001 N.ar    1  LIG1       -0.2110
     19 H          -3.7000    2.8782   -0.0006 H       1  LIG1        0.0639
     20 O          -7.3471    0.1719   -0.0001 O.3     1  LIG1       -0.4919
     21 H          -6.6677   -0.5709   -0.0002 H       1  LIG1        0.2937
     22 N          -4.3149    6.0705   -0.0009 N.1     1  LIG1       -0.1908
     23 C          -4.9152    5.0922   -0.0007 C.1     1  LIG1        0.1013
     24 C          -9.4241    4.3535   -0.0001 C.ar    1  LIG1        0.2218
     25 C          -8.0298    4.7030   -0.0001 C.ar    1  LIG1        0.0643
     26 C          -7.7250    6.0631   -0.0001 C.ar    1  LIG1       -0.0285
     27 C          -8.7459    7.0046   -0.0000 C.ar    1  LIG1        0.0707
     28 C         -10.0701    6.5518    0.0000 C.ar    1  LIG1        0.0488
     29 N         -10.3895    5.2758   -0.0000 N.ar    1  LIG1       -0.2196
     30 H          -6.7057    6.4173   -0.0001 H       1  LIG1        0.0639
     31 H         -10.8873    7.2639    0.0000 H       1  LIG1        0.0844
     32 O          -9.8447    3.1136   -0.0000 O.3     1  LIG1       -0.4919
     33 H          -9.0393    2.5126   -0.0000 H       1  LIG1        0.2937
     34 N          -8.2562    9.5480    0.0000 N.1     1  LIG1       -0.1908
     35 C          -8.4634    8.4194    0.0000 C.1     1  LIG1        0.1007
@<TRIPOS>BOND
     1    22    23    3
     2    23    16    1
     3    19    15    1
     4    11    12    3
     5    12     4    1
     6    15    16   ar
     7    15    14   ar
     8    16    17   ar
     9     7     3    1
    10     4     3   ar
    11     4     5   ar
    12     3     2   ar
    13    14     5    1
    14    14    13   ar
    15     5     6   ar
    16    17    25    1
    17    17    18   ar
    18    21    20    1
    19    25    26   ar
    20    25    24   ar
    21    30    26    1
    22    13    18   ar
    23    13    20    1
    24     2     8    1
    25     2     1   ar
    26    26    27   ar
    27     6     1   ar
    28    24    32    1
    29    24    29   ar
    30    27    35    1
    31    27    28   ar
    32    32    33    1
    33    29    28   ar
    34     1     9    1
    35    35    34    3
    36    28    31    1
    37     9    10    1
