@<TRIPOS>MOLECULE
mol_data/opt/m06hf/geoms/mol2/6fd6fd6fd6fd-.out
 46 49 0 0 0
SMALL
GASTEIGER

@<TRIPOS>ATOM
      1 C          -4.5186   -2.2234   -0.3002 C.ar    1  LIG1        0.2129
      2 C          -3.1637   -2.3891    0.0177 C.ar    1  LIG1        0.0011
      3 C          -2.4532   -1.2546    0.3452 C.ar    1  LIG1       -0.0372
      4 C          -3.0738    0.0018    0.3328 C.ar    1  LIG1        0.0781
      5 C          -4.4236    0.0863   -0.0375 C.ar    1  LIG1        0.0972
      6 N          -5.0958   -1.0360   -0.3265 N.ar    1  LIG1       -0.2116
      7 H          -1.4101   -1.3195    0.6259 H       1  LIG1        0.0633
      8 H          -2.7041   -3.3678    0.0227 H       1  LIG1        0.0671
      9 O          -5.3320   -3.2383   -0.5998 O.3     1  LIG1       -0.4924
     10 H          -4.8852   -4.0906   -0.5473 H       1  LIG1        0.2937
     11 N          -1.6213    2.0034    1.1004 N.1     1  LIG1       -0.1908
     12 C          -2.2869    1.1348    0.7544 C.1     1  LIG1        0.1013
     13 C          -6.6472    1.2725   -0.1391 C.ar    1  LIG1        0.2224
     14 C          -5.2223    1.3351   -0.1175 C.ar    1  LIG1        0.0643
     15 C          -4.6676    2.6036   -0.2152 C.ar    1  LIG1       -0.0279
     16 C          -5.4665    3.7469   -0.2359 C.ar    1  LIG1        0.0787
     17 C          -6.8619    3.6028   -0.1228 C.ar    1  LIG1        0.0973
     18 N          -7.3841    2.3753   -0.1053 N.ar    1  LIG1       -0.2110
     19 H          -3.5982    2.7410   -0.2936 H       1  LIG1        0.0639
     20 O          -7.3178    0.1486   -0.1921 O.3     1  LIG1       -0.4919
     21 H          -6.6592   -0.5977   -0.3146 H       1  LIG1        0.2937
     22 N          -4.2289    5.9943   -0.5853 N.1     1  LIG1       -0.1908
     23 C          -4.8013    5.0125   -0.4251 C.1     1  LIG1        0.1013
     24 C          -9.2312    4.4664   -0.2851 C.ar    1  LIG1        0.2224
     25 C          -7.8418    4.7124   -0.0479 C.ar    1  LIG1        0.0643
     26 C          -7.4865    6.0120    0.2992 C.ar    1  LIG1       -0.0279
     27 C          -8.4438    7.0209    0.3183 C.ar    1  LIG1        0.0787
     28 C          -9.7614    6.6935   -0.0423 C.ar    1  LIG1        0.0973
     29 N         -10.1258    5.4504   -0.3063 N.ar    1  LIG1       -0.2110
     30 H          -6.4734    6.2628    0.5791 H       1  LIG1        0.0639
     31 O          -9.7104    3.2631   -0.4951 O.3     1  LIG1       -0.4919
     32 H          -8.9679    2.6048   -0.3617 H       1  LIG1        0.2937
     33 N          -7.7795    9.3677    1.1897 N.1     1  LIG1       -0.1908
     34 C          -8.0818    8.3384    0.7826 C.1     1  LIG1        0.1013
     35 C         -10.7344    8.9570   -0.6901 C.ar    1  LIG1        0.2218
     36 C         -10.8595    7.6989   -0.0716 C.ar    1  LIG1        0.0643
     37 C         -12.0891    7.3827    0.4790 C.ar    1  LIG1       -0.0285
     38 C         -13.1092    8.3370    0.4616 C.ar    1  LIG1        0.0707
     39 C         -12.8573    9.5736   -0.1297 C.ar    1  LIG1        0.0488
     40 N         -11.6969    9.8651   -0.7032 N.ar    1  LIG1       -0.2196
     41 H         -12.2423    6.4048    0.9171 H       1  LIG1        0.0639
     42 H         -13.6223   10.3398   -0.1478 H       1  LIG1        0.0844
     43 O          -9.6021    9.2483   -1.3309 O.3     1  LIG1       -0.4919
     44 H          -9.6409   10.1703   -1.6220 H       1  LIG1        0.2937
     45 N         -15.4251    7.8562    1.5199 N.1     1  LIG1       -0.1908
     46 C         -14.3995    8.0655    1.0501 C.1     1  LIG1        0.1007
@<TRIPOS>BOND
     1    44    43    1
     2    43    35    1
     3    40    35   ar
     4    40    39   ar
     5    35    36   ar
     6     9    10    1
     7     9     1    1
     8    22    23    3
     9    31    32    1
    10    31    24    1
    11    23    16    1
    12     6     1   ar
    13     6     5   ar
    14    21    20    1
    15    29    24   ar
    16    29    28   ar
    17     1     2   ar
    18    19    15    1
    19    24    25   ar
    20    16    15   ar
    21    16    17   ar
    22    15    14   ar
    23    20    13    1
    24    42    39    1
    25    13    14   ar
    26    13    18   ar
    27    39    38   ar
    28    17    18   ar
    29    17    25    1
    30    14     5    1
    31    36    28    1
    32    36    37   ar
    33    25    26   ar
    34    28    27   ar
    35     5     4   ar
    36     2     8    1
    37     2     3   ar
    38    26    27   ar
    39    26    30    1
    40    27    34    1
    41     4     3   ar
    42     4    12    1
    43     3     7    1
    44    38    37   ar
    45    38    46    1
    46    37    41    1
    47    12    11    3
    48    34    33    3
    49    46    45    3
