@<TRIPOS>MOLECULE
mol_data/opt/m06hf/geoms/mol2/6fd6fd-6fd6fd-.out
 46 49 0 0 0
SMALL
GASTEIGER

@<TRIPOS>ATOM
      1 C          -3.6776   -1.7768   -1.0978 C.ar    1  LIG1        0.2129
      2 C          -2.8801   -2.1900   -0.0168 C.ar    1  LIG1        0.0011
      3 C          -2.8922   -1.4151    1.1239 C.ar    1  LIG1       -0.0372
      4 C          -3.6664   -0.2503    1.1534 C.ar    1  LIG1        0.0781
      5 C          -4.3910    0.0928    0.0069 C.ar    1  LIG1        0.0972
      6 N          -4.4024   -0.6725   -1.0798 N.ar    1  LIG1       -0.2116
      7 H          -2.3212   -1.6993    1.9974 H       1  LIG1        0.0633
      8 H          -2.2898   -3.0946   -0.0741 H       1  LIG1        0.0671
      9 O          -3.7576   -2.4809   -2.2356 O.3     1  LIG1       -0.4924
     10 H          -3.2144   -3.2757   -2.2002 H       1  LIG1        0.2937
     11 N          -3.8497    1.1028    3.3545 N.1     1  LIG1       -0.1908
     12 C          -3.7617    0.5211    2.3695 C.1     1  LIG1        0.1013
     13 C          -4.8023    2.5881    0.3233 C.ar    1  LIG1        0.2224
     14 C          -5.2524    1.3070   -0.0593 C.ar    1  LIG1        0.0643
     15 C          -6.5257    1.2256   -0.5840 C.ar    1  LIG1       -0.0279
     16 C          -7.3320    2.3712   -0.6308 C.ar    1  LIG1        0.0787
     17 C          -6.8199    3.5772   -0.1369 C.ar    1  LIG1        0.0973
     18 N          -5.5649    3.6657    0.3024 N.ar    1  LIG1       -0.2110
     19 H          -6.8900    0.2806   -0.9672 H       1  LIG1        0.0639
     20 O          -3.5357    2.7328    0.7039 O.3     1  LIG1       -0.4919
     21 H          -3.4006    3.6431    1.0040 H       1  LIG1        0.2937
     22 N          -9.6807    2.2475   -1.7201 N.1     1  LIG1       -0.1908
     23 C          -8.6417    2.3082   -1.2369 C.1     1  LIG1        0.1013
     24 C          -8.8938    4.9427    0.4545 C.ar    1  LIG1        0.2224
     25 C          -7.6114    4.8385   -0.1258 C.ar    1  LIG1        0.0643
     26 C          -7.0446    5.9980   -0.6287 C.ar    1  LIG1       -0.0279
     27 C          -7.7742    7.1843   -0.6289 C.ar    1  LIG1        0.0787
     28 C          -9.0782    7.1587   -0.1121 C.ar    1  LIG1        0.0973
     29 N          -9.5904    6.0661    0.4390 N.ar    1  LIG1       -0.2110
     30 H          -6.0335    5.9766   -1.0144 H       1  LIG1        0.0639
     31 O          -9.4904    3.9328    1.0920 O.3     1  LIG1       -0.4919
     32 H          -8.9392    3.1421    1.1209 H       1  LIG1        0.2937
     33 N          -6.6099    9.3604   -1.4154 N.1     1  LIG1       -0.1908
     34 C          -7.1484    8.4038   -1.0818 C.1     1  LIG1        0.1013
     35 C         -10.1375    9.2008   -1.1942 C.ar    1  LIG1        0.2218
     36 C          -9.9519    8.3635   -0.0773 C.ar    1  LIG1        0.0643
     37 C         -10.6726    8.6621    1.0656 C.ar    1  LIG1       -0.0285
     38 C         -11.4797    9.8025    1.0822 C.ar    1  LIG1        0.0707
     39 C         -11.5466   10.5916   -0.0645 C.ar    1  LIG1        0.0488
     40 N         -10.8971   10.2835   -1.1797 N.ar    1  LIG1       -0.2196
     41 H         -10.6006    8.0150    1.9302 H       1  LIG1        0.0639
     42 H         -12.1514   11.4896   -0.0790 H       1  LIG1        0.0844
     43 O          -9.5445    8.8787   -2.3444 O.3     1  LIG1       -0.4919
     44 H          -9.7228    9.5799   -2.9868 H       1  LIG1        0.2937
     45 N         -12.8175   10.4869    3.1936 N.1     1  LIG1       -0.1908
     46 C         -12.2261   10.1779    2.2601 C.1     1  LIG1        0.1007
@<TRIPOS>BOND
     1    44    43    1
     2    43    35    1
     3     9    10    1
     4     9     1    1
     5    22    23    3
     6    33    34    3
     7    23    16    1
     8    35    40   ar
     9    35    36   ar
    10    40    39   ar
    11     1     6   ar
    12     1     2   ar
    13    34    27    1
    14     6     5   ar
    15    30    26    1
    16    19    15    1
    17    16    15   ar
    18    16    17   ar
    19    27    26   ar
    20    27    28   ar
    21    26    25   ar
    22    15    14   ar
    23    17    25    1
    24    17    18   ar
    25    25    24   ar
    26    28    36    1
    27    28    29   ar
    28    42    39    1
    29    36    37   ar
    30     8     2    1
    31    39    38   ar
    32    14     5    1
    33    14    13   ar
    34     2     3   ar
    35     5     4   ar
    36    18    13   ar
    37    13    20    1
    38    29    24   ar
    39    24    31    1
    40    20    21    1
    41    37    38   ar
    42    37    41    1
    43    38    46    1
    44    31    32    1
    45     3     4   ar
    46     3     7    1
    47     4    12    1
    48    46    45    3
    49    12    11    3
