@<TRIPOS>MOLECULE
mol_data/opt/m06hf/geoms/mol2/6fd6fd-4fd6fd.out
 47 50 0 0 0
SMALL
GASTEIGER

@<TRIPOS>ATOM
      1 C          -4.3454   -2.1821   -0.4880 C.ar    1  LIG1        0.2129
      2 C          -2.9971   -2.2751   -0.1039 C.ar    1  LIG1        0.0011
      3 C          -2.3772   -1.1266    0.3422 C.ar    1  LIG1       -0.0372
      4 C          -3.0938    0.0744    0.3705 C.ar    1  LIG1        0.0781
      5 C          -4.4207    0.0658   -0.0751 C.ar    1  LIG1        0.0972
      6 N          -5.0243   -1.0492   -0.4750 N.ar    1  LIG1       -0.2116
      7 H          -1.3498   -1.1430    0.6803 H       1  LIG1        0.0633
      8 H          -2.4705   -3.2193   -0.1418 H       1  LIG1        0.0671
      9 O          -5.0449   -3.2498   -0.8998 O.3     1  LIG1       -0.4924
     10 H          -4.5085   -4.0498   -0.8901 H       1  LIG1        0.2937
     11 N          -1.9825    2.1733    1.4049 N.1     1  LIG1       -0.1908
     12 C          -2.4821    1.2578    0.9266 C.1     1  LIG1        0.1013
     13 C          -4.8489    2.5191   -0.6067 C.ar    1  LIG1        0.2224
     14 C          -5.2732    1.2873   -0.0712 C.ar    1  LIG1        0.0643
     15 C          -6.5608    1.2299    0.4253 C.ar    1  LIG1       -0.0279
     16 C          -7.3437    2.3889    0.4434 C.ar    1  LIG1        0.0787
     17 C          -6.8048    3.5729   -0.0678 C.ar    1  LIG1        0.0957
     18 N          -5.5842    3.6157   -0.5930 N.ar    1  LIG1       -0.2111
     19 H          -6.9488    0.2942    0.8069 H       1  LIG1        0.0639
     20 O          -3.6536    2.5843   -1.1932 O.3     1  LIG1       -0.4919
     21 H          -3.4780    3.5051   -1.4330 H       1  LIG1        0.2937
     22 N          -9.7213    2.3451    1.4740 N.1     1  LIG1       -0.1908
     23 C          -8.6691    2.3666    1.0167 C.1     1  LIG1        0.1013
     24 C          -7.0838    5.9726    0.6011 C.ar    1  LIG1        0.1267
     25 C          -7.8220    7.1564    0.6263 C.ar    1  LIG1       -0.0104
     26 C          -7.5895    4.8433   -0.0621 C.ar    1  LIG1        0.0444
     27 C          -9.0559    7.2394   -0.0118 C.ar    1  LIG1        0.0081
     28 H          -7.4468    8.0190    1.1651 H       1  LIG1        0.0661
     29 C          -8.8208    4.9211   -0.6955 C.ar    1  LIG1       -0.0310
     30 C          -9.5501    6.1119   -0.6852 C.ar    1  LIG1        0.0605
     31 H          -9.2192    4.0589   -1.2149 H       1  LIG1        0.0638
     32 O          -5.8999    5.8491    1.2257 O.3     1  LIG1       -0.5061
     33 H          -5.6492    6.6621    1.6777 H       1  LIG1        0.2922
     34 N         -11.8028    6.2319   -1.9679 N.1     1  LIG1       -0.1908
     35 C         -10.8065    6.1834   -1.4008 C.1     1  LIG1        0.0998
     36 C         -11.0871    8.5845    0.6757 C.ar    1  LIG1        0.2203
     37 C          -9.8288    8.5142    0.0306 C.ar    1  LIG1        0.0461
     38 C          -9.3239    9.6770   -0.5235 C.ar    1  LIG1       -0.0300
     39 C         -10.0738   10.8518   -0.4407 C.ar    1  LIG1        0.0706
     40 C         -11.3092   10.8043    0.2054 C.ar    1  LIG1        0.0488
     41 N         -11.7941    9.6992    0.7516 N.ar    1  LIG1       -0.2197
     42 H          -8.3647    9.6710   -1.0257 H       1  LIG1        0.0639
     43 H         -11.9188   11.6963    0.2832 H       1  LIG1        0.0844
     44 O         -11.6365    7.5270    1.2758 O.3     1  LIG1       -0.4920
     45 H         -11.0879    6.7368    1.1937 H       1  LIG1        0.2937
     46 N          -9.1954   13.0674   -1.4562 N.1     1  LIG1       -0.1908
     47 C          -9.5880   12.0869   -1.0079 C.1     1  LIG1        0.1007
@<TRIPOS>BOND
     1    34    35    3
     2    46    47    3
     3    21    20    1
     4    35    30    1
     5    31    29    1
     6    20    13    1
     7    42    38    1
     8    47    39    1
     9     9    10    1
    10     9     1    1
    11    29    30   ar
    12    29    26   ar
    13    30    27   ar
    14    13    18   ar
    15    13    14   ar
    16    18    17   ar
    17    38    39   ar
    18    38    37   ar
    19     1     6   ar
    20     1     2   ar
    21     6     5   ar
    22    39    40   ar
    23     8     2    1
    24     2     3   ar
    25     5    14    1
    26     5     4   ar
    27    14    15   ar
    28    17    26    1
    29    17    16   ar
    30    26    24   ar
    31    27    37    1
    32    27    25   ar
    33    37    36   ar
    34    40    43    1
    35    40    41   ar
    36     3     4   ar
    37     3     7    1
    38     4    12    1
    39    15    16   ar
    40    15    19    1
    41    16    23    1
    42    24    25   ar
    43    24    32    1
    44    25    28    1
    45    36    41   ar
    46    36    44    1
    47    12    11    3
    48    23    22    3
    49    45    44    1
    50    32    33    1
