@<TRIPOS>MOLECULE
mol_data/opt/m06hf/geoms/mol2/6fd6fd-.out
 24 25 0 0 0
SMALL
GASTEIGER

@<TRIPOS>ATOM
      1 C          -4.4303   -2.0143   -0.5204 C.ar    1  LIG1        0.2129
      2 C          -3.0976   -2.0967   -0.0849 C.ar    1  LIG1        0.0011
      3 C          -2.5091   -0.9458    0.3971 C.ar    1  LIG1       -0.0372
      4 C          -3.2412    0.2453    0.4107 C.ar    1  LIG1        0.0781
      5 C          -4.5501    0.2277   -0.0864 C.ar    1  LIG1        0.0972
      6 N          -5.1238   -0.8903   -0.5217 N.ar    1  LIG1       -0.2116
      7 H          -1.4952   -0.9544    0.7735 H       1  LIG1        0.0633
      8 H          -2.5589   -3.0342   -0.1119 H       1  LIG1        0.0671
      9 O          -5.0991   -3.0859   -0.9731 O.3     1  LIG1       -0.4924
     10 H          -4.5543   -3.8795   -0.9456 H       1  LIG1        0.2937
     11 N          -2.1967    2.3503    1.5018 N.1     1  LIG1       -0.1908
     12 C          -2.6659    1.4312    0.9997 C.1     1  LIG1        0.1013
     13 C          -4.9813    2.6734   -0.6334 C.ar    1  LIG1        0.2218
     14 C          -5.4126    1.4419   -0.1062 C.ar    1  LIG1        0.0643
     15 C          -6.7159    1.3712    0.3519 C.ar    1  LIG1       -0.0285
     16 C          -7.5069    2.5232    0.3374 C.ar    1  LIG1        0.0707
     17 C          -6.9596    3.7038   -0.1602 C.ar    1  LIG1        0.0488
     18 N          -5.7259    3.7665   -0.6457 N.ar    1  LIG1       -0.2196
     19 H          -7.1058    0.4307    0.7186 H       1  LIG1        0.0639
     20 H          -7.5411    4.6168   -0.1741 H       1  LIG1        0.0844
     21 O          -3.7670    2.7482   -1.1817 O.3     1  LIG1       -0.4919
     22 H          -3.6004    3.6687   -1.4288 H       1  LIG1        0.2937
     23 N          -9.9360    2.4937    1.2403 N.1     1  LIG1       -0.1908
     24 C          -8.8618    2.5053    0.8370 C.1     1  LIG1        0.1007
@<TRIPOS>BOND
     1    22    21    1
     2    21    13    1
     3     9    10    1
     4     9     1    1
     5    18    13   ar
     6    18    17   ar
     7    13    14   ar
     8     6     1   ar
     9     6     5   ar
    10     1     2   ar
    11    20    17    1
    12    17    16   ar
    13     8     2    1
    14    14     5    1
    15    14    15   ar
    16     5     4   ar
    17     2     3   ar
    18    16    15   ar
    19    16    24    1
    20    15    19    1
    21     3     4   ar
    22     3     7    1
    23     4    12    1
    24    24    23    3
    25    12    11    3
