@<TRIPOS>MOLECULE
mol_data/opt/m06hf/geoms/mol2/6fe13de-12ad-4fh-.out
 46 49 0 0 0
SMALL
GASTEIGER

@<TRIPOS>ATOM
      1 C          -4.5555   -1.7761    1.2924 C.ar    1  LIG1        0.2129
      2 C          -3.2321   -2.0483    0.9055 C.ar    1  LIG1        0.0010
      3 C          -2.5591   -1.0717    0.2048 C.ar    1  LIG1       -0.0392
      4 C          -3.1778    0.1577   -0.0760 C.ar    1  LIG1        0.0523
      5 C          -4.4706    0.3442    0.4235 C.ar    1  LIG1        0.1075
      6 N          -5.1410   -0.6216    1.0624 N.ar    1  LIG1       -0.2103
      7 H          -1.5529   -1.2409   -0.1537 H       1  LIG1        0.0632
      8 H          -2.7701   -3.0000    1.1306 H       1  LIG1        0.0671
      9 O          -5.3184   -2.6844    1.9273 O.3     1  LIG1       -0.4924
     10 H          -4.8324   -3.5014    2.0784 H       1  LIG1        0.2937
     11 C          -2.5061    1.1180   -0.9058 C.1     1  LIG1       -0.0675
     12 C          -1.9225    1.8907   -1.6162 C.1     1  LIG1       -0.1138
     13 H          -1.4197    2.6131   -2.2172 H       1  LIG1        0.1232
     14 C          -5.2643    1.5809    0.2553 C.ar    1  LIG1        0.0856
     15 C          -4.9882    2.9386    0.1715 C.ar    1  LIG1        0.0945
     16 C          -6.2371    3.6250    0.0786 C.ar    1  LIG1        0.0709
     17 C          -7.2238    2.6553    0.1213 C.ar    1  LIG1        0.0995
     18 N          -6.6156    1.4494    0.2334 N.ar    1  LIG1       -0.3485
     19 H          -7.0717    0.5548    0.3726 H       1  LIG1        0.1661
     20 N          -2.7624    4.2202    0.4066 N.1     1  LIG1       -0.1908
     21 C          -3.7327    3.6189    0.2874 C.1     1  LIG1        0.1026
     22 C          -6.4366    5.0359   -0.0220 C.1     1  LIG1       -0.0661
     23 C          -6.6028    6.2233   -0.1042 C.1     1  LIG1       -0.1138
     24 H          -6.7341    7.2786   -0.1783 H       1  LIG1        0.1232
     25 C          -8.6689    2.7847    0.0711 C.ar    1  LIG1        0.1543
     26 C          -9.5083    3.8491    0.1049 C.ar    1  LIG1        0.0037
     27 C         -10.8256    3.2817    0.0208 C.ar    1  LIG1        0.0982
     28 C         -10.6864    1.9223   -0.0484 C.ar    1  LIG1        0.1566
     29 O          -9.3729    1.6279   -0.0240 O.2     1  LIG1       -0.4519
     30 H          -9.2366    4.8873    0.1777 H       1  LIG1        0.0669
     31 N         -13.0885    4.5101   -0.1423 N.1     1  LIG1       -0.1907
     32 C         -12.0729    3.9786   -0.0624 C.1     1  LIG1        0.1030
     33 C         -12.8617    0.8089    0.4745 C.ar    1  LIG1        0.1276
     34 C         -13.7119   -0.2816    0.3097 C.ar    1  LIG1       -0.0177
     35 C         -11.6325    0.8069   -0.1914 C.ar    1  LIG1        0.0617
     36 C         -13.3577   -1.3477   -0.5010 C.ar    1  LIG1       -0.0376
     37 H         -14.6504   -0.2780    0.8476 H       1  LIG1        0.0655
     38 C         -11.2689   -0.2732   -1.0015 C.ar    1  LIG1       -0.0268
     39 C         -12.1254   -1.3589   -1.1705 C.ar    1  LIG1        0.0254
     40 H         -10.3083   -0.2569   -1.5012 H       1  LIG1        0.0644
     41 H         -14.0300   -2.1900   -0.6094 H       1  LIG1        0.0637
     42 O         -13.1990    1.8005    1.3618 O.3     1  LIG1       -0.5061
     43 H         -13.6223    2.5462    0.9134 H       1  LIG1        0.2922
     44 N         -11.7454   -2.4579   -1.9442 N.pl3   1  LIG1       -0.3579
     45 H         -12.5130   -2.9985   -2.3171 H       1  LIG1        0.1423
     46 H         -11.0469   -2.2612   -2.6470 H       1  LIG1        0.1423
@<TRIPOS>BOND
     1    46    44    1
     2    45    44    1
     3    13    12    1
     4    44    39    1
     5    12    11    3
     6    40    38    1
     7    39    38   ar
     8    39    36   ar
     9    38    35   ar
    10    11     4    1
    11    41    36    1
    12    36    34   ar
    13    35    28    1
    14    35    33   ar
    15    24    23    1
    16     7     3    1
    17    31    32    3
    18    23    22    3
    19     4     3   ar
    20     4     5   ar
    21    32    27    1
    22    28    29   ar
    23    28    27   ar
    24    29    25   ar
    25    22    16    1
    26    27    26   ar
    27    25    26   ar
    28    25    17    1
    29    16    17   ar
    30    16    15   ar
    31    26    30    1
    32    17    18   ar
    33    15    14   ar
    34    15    21    1
    35     3     2   ar
    36    18    14   ar
    37    18    19    1
    38    14     5    1
    39    21    20    3
    40    34    33   ar
    41    34    37    1
    42     5     6   ar
    43    33    42    1
    44     2     8    1
    45     2     1   ar
    46    43    42    1
    47     6     1   ar
    48     1     9    1
    49     9    10    1
