@<TRIPOS>MOLECULE
mol_data/opt/m06hf/geoms/mol2/6fe6fe6fe6fe-.out
 50 53 0 0 0
SMALL
GASTEIGER

@<TRIPOS>ATOM
      1 C          -4.4986   -2.1926   -0.3709 C.ar    1  LIG1        0.2129
      2 C          -3.1488   -2.3378   -0.0313 C.ar    1  LIG1        0.0010
      3 C          -2.4641   -1.1923    0.3183 C.ar    1  LIG1       -0.0392
      4 C          -3.0930    0.0617    0.3081 C.ar    1  LIG1        0.0510
      5 C          -4.4385    0.1154   -0.0944 C.ar    1  LIG1        0.0952
      6 N          -5.0915   -1.0159   -0.4019 N.ar    1  LIG1       -0.2116
      7 H          -1.4263   -1.2451    0.6192 H       1  LIG1        0.0632
      8 H          -2.6726   -3.3088   -0.0247 H       1  LIG1        0.0671
      9 O          -5.2921   -3.2253   -0.6899 O.3     1  LIG1       -0.4924
     10 H          -4.8259   -4.0655   -0.6229 H       1  LIG1        0.2937
     11 C          -2.3291    1.1931    0.7677 C.1     1  LIG1       -0.0675
     12 C          -1.6383    2.0864    1.1794 C.1     1  LIG1       -0.1138
     13 H          -1.0423    2.8892    1.5492 H       1  LIG1        0.1232
     14 C          -6.6763    1.2779   -0.2100 C.ar    1  LIG1        0.2224
     15 C          -5.2547    1.3510   -0.1909 C.ar    1  LIG1        0.0642
     16 C          -4.7092    2.6208   -0.3146 C.ar    1  LIG1       -0.0299
     17 C          -5.5039    3.7695   -0.3493 C.ar    1  LIG1        0.0516
     18 C          -6.8969    3.6059   -0.2233 C.ar    1  LIG1        0.0953
     19 N          -7.4179    2.3751   -0.1909 N.ar    1  LIG1       -0.2111
     20 H          -3.6402    2.7459   -0.4029 H       1  LIG1        0.0639
     21 O          -7.3392    0.1417   -0.2467 O.3     1  LIG1       -0.4919
     22 H          -6.6717   -0.5920   -0.3780 H       1  LIG1        0.2937
     23 C          -4.8415    5.0301   -0.5691 C.1     1  LIG1       -0.0675
     24 C          -4.2331    6.0465   -0.7744 C.1     1  LIG1       -0.1138
     25 H          -3.7157    6.9580   -0.9662 H       1  LIG1        0.1232
     26 C          -9.2639    4.4737   -0.4296 C.ar    1  LIG1        0.2224
     27 C          -7.8840    4.7104   -0.1506 C.ar    1  LIG1        0.0642
     28 C          -7.5371    5.9981    0.2404 C.ar    1  LIG1       -0.0299
     29 C          -8.4848    7.0201    0.2634 C.ar    1  LIG1        0.0516
     30 C          -9.7881    6.6971   -0.1490 C.ar    1  LIG1        0.0953
     31 N         -10.1530    5.4593   -0.4526 N.ar    1  LIG1       -0.2111
     32 H          -6.5282    6.2229    0.5523 H       1  LIG1        0.0639
     33 O          -9.7375    3.2689   -0.6790 O.3     1  LIG1       -0.4919
     34 H          -9.0017    2.6126   -0.5112 H       1  LIG1        0.2937
     35 C          -8.1259    8.3212    0.7652 C.1     1  LIG1       -0.0675
     36 C          -7.7976    9.3833    1.2215 C.1     1  LIG1       -0.1138
     37 H          -7.5159   10.3285    1.6226 H       1  LIG1        0.1232
     38 C         -10.7644    8.9476   -0.8365 C.ar    1  LIG1        0.2218
     39 C         -10.8834    7.7070   -0.1869 C.ar    1  LIG1        0.0641
     40 C         -12.1098    7.4089    0.3818 C.ar    1  LIG1       -0.0305
     41 C         -13.1414    8.3547    0.3538 C.ar    1  LIG1        0.0436
     42 C         -12.8868    9.5716   -0.2763 C.ar    1  LIG1        0.0468
     43 N         -11.7288    9.8522   -0.8662 N.ar    1  LIG1       -0.2197
     44 H         -12.2573    6.4415    0.8440 H       1  LIG1        0.0638
     45 H         -13.6534   10.3354   -0.3141 H       1  LIG1        0.0843
     46 O          -9.6373    9.2346   -1.5007 O.3     1  LIG1       -0.4919
     47 H          -9.7340   10.1265   -1.8607 H       1  LIG1        0.2937
     48 C         -14.4256    8.0924    0.9519 C.1     1  LIG1       -0.0681
     49 C         -15.4979    7.8734    1.4480 C.1     1  LIG1       -0.1139
     50 H         -16.4485    7.6724    1.8844 H       1  LIG1        0.1232
@<TRIPOS>BOND
     1    47    46    1
     2    46    38    1
     3    25    24    1
     4    43    38   ar
     5    43    42   ar
     6    38    39   ar
     7    24    23    3
     8     9    10    1
     9     9     1    1
    10    33    34    1
    11    33    26    1
    12    23    17    1
    13    31    26   ar
    14    31    30   ar
    15    26    27   ar
    16    20    16    1
    17     6     1   ar
    18     6     5   ar
    19    22    21    1
    20     1     2   ar
    21    17    16   ar
    22    17    18   ar
    23    16    15   ar
    24    45    42    1
    25    42    41   ar
    26    21    14    1
    27    18    19   ar
    28    18    27    1
    29    14    19   ar
    30    14    15   ar
    31    15     5    1
    32    39    30    1
    33    39    40   ar
    34    27    28   ar
    35    30    29   ar
    36     5     4   ar
    37     2     8    1
    38     2     3   ar
    39    28    29   ar
    40    28    32    1
    41    29    35    1
    42     4     3   ar
    43     4    11    1
    44     3     7    1
    45    41    40   ar
    46    41    48    1
    47    40    44    1
    48    35    36    3
    49    11    12    3
    50    48    49    3
    51    12    13    1
    52    36    37    1
    53    49    50    1
