@<TRIPOS>MOLECULE
mol_data/opt/m06hf/geoms/mol2/6fe6fe-6fe-6fe-.out
 50 53 0 0 0
SMALL
GASTEIGER

@<TRIPOS>ATOM
      1 C          -3.9543   -1.9095   -1.2413 C.ar    1  LIG1        0.2129
      2 C          -2.8799   -2.1718   -0.3784 C.ar    1  LIG1        0.0010
      3 C          -2.6006   -1.2376    0.5990 C.ar    1  LIG1       -0.0392
      4 C          -3.3654   -0.0684    0.6861 C.ar    1  LIG1        0.0510
      5 C          -4.3844    0.1087   -0.2601 C.ar    1  LIG1        0.0952
      6 N          -4.6751   -0.8067   -1.1825 N.ar    1  LIG1       -0.2116
      7 H          -1.8022   -1.4010    1.3101 H       1  LIG1        0.0632
      8 H          -2.3021   -3.0824   -0.4683 H       1  LIG1        0.0671
      9 O          -4.3256   -2.7791   -2.2021 O.3     1  LIG1       -0.4924
     10 H          -3.7617   -3.5594   -2.1964 H       1  LIG1        0.2937
     11 C          -3.1385    0.8665    1.7575 C.1     1  LIG1       -0.0675
     12 C          -2.9433    1.6098    2.6814 C.1     1  LIG1       -0.1138
     13 H          -2.7750    2.2758    3.4960 H       1  LIG1        0.1232
     14 C          -4.7302    2.6252   -0.2900 C.ar    1  LIG1        0.2224
     15 C          -5.2530    1.3195   -0.2567 C.ar    1  LIG1        0.0642
     16 C          -6.6286    1.1999   -0.2793 C.ar    1  LIG1       -0.0299
     17 C          -7.4401    2.3436   -0.2670 C.ar    1  LIG1        0.0516
     18 C          -6.8058    3.5910   -0.2422 C.ar    1  LIG1        0.0953
     19 N          -5.4786    3.7095   -0.2643 N.ar    1  LIG1       -0.2111
     20 H          -7.0790    0.2165   -0.3104 H       1  LIG1        0.0639
     21 O          -3.4057    2.7954   -0.3799 O.3     1  LIG1       -0.4919
     22 H          -3.2359    3.7475   -0.3751 H       1  LIG1        0.2937
     23 C          -8.8750    2.2135   -0.2924 C.1     1  LIG1       -0.0675
     24 C         -10.0687    2.0777   -0.3126 C.1     1  LIG1       -0.1138
     25 H         -11.1272    1.9612   -0.3364 H       1  LIG1        0.1232
     26 C          -7.3495    5.9024   -1.1049 C.ar    1  LIG1        0.2224
     27 C          -7.5810    4.8620   -0.1835 C.ar    1  LIG1        0.0642
     28 C          -8.5421    5.0917    0.7809 C.ar    1  LIG1       -0.0299
     29 C          -9.2211    6.3187    0.8327 C.ar    1  LIG1        0.0516
     30 C          -8.8996    7.2820   -0.1293 C.ar    1  LIG1        0.0953
     31 N          -7.9874    7.0552   -1.0749 N.ar    1  LIG1       -0.2111
     32 H          -8.7680    4.3287    1.5144 H       1  LIG1        0.0639
     33 O          -6.4620    5.7220   -2.0893 O.3     1  LIG1       -0.4919
     34 H          -6.4565    6.5310   -2.6195 H       1  LIG1        0.2937
     35 C         -10.1911    6.5590    1.8712 C.1     1  LIG1       -0.0675
     36 C         -10.9952    6.7339    2.7474 C.1     1  LIG1       -0.1138
     37 H         -11.7040    6.9006    3.5255 H       1  LIG1        0.1232
     38 C          -8.8260    9.8021   -0.2285 C.ar    1  LIG1        0.2218
     39 C          -9.5739    8.6103   -0.1675 C.ar    1  LIG1        0.0641
     40 C         -10.9520    8.7331   -0.1647 C.ar    1  LIG1       -0.0305
     41 C         -11.5427   10.0017   -0.2354 C.ar    1  LIG1        0.0436
     42 C         -10.6980   11.1064   -0.3079 C.ar    1  LIG1        0.0468
     43 N          -9.3718   11.0036   -0.2998 N.ar    1  LIG1       -0.2197
     44 H         -11.5753    7.8502   -0.1132 H       1  LIG1        0.0638
     45 H         -11.1110   12.1049   -0.3727 H       1  LIG1        0.0843
     46 O          -7.4891    9.7419   -0.1901 O.3     1  LIG1       -0.4919
     47 H          -7.1624   10.6511   -0.2331 H       1  LIG1        0.2937
     48 C         -12.9736   10.1672   -0.2425 C.1     1  LIG1       -0.0681
     49 C         -14.1669   10.3064   -0.2489 C.1     1  LIG1       -0.1139
     50 H         -15.2249   10.4305   -0.2562 H       1  LIG1        0.1232
@<TRIPOS>BOND
     1    34    33    1
     2     9    10    1
     3     9     1    1
     4    33    26    1
     5     1     6   ar
     6     1     2   ar
     7     6     5   ar
     8    26    31   ar
     9    26    27   ar
    10    31    30   ar
    11     8     2    1
    12    21    22    1
    13    21    14    1
    14     2     3   ar
    15    45    42    1
    16    25    24    1
    17    24    23    3
    18    20    16    1
    19    42    43   ar
    20    42    41   ar
    21    43    38   ar
    22    23    17    1
    23    14    19   ar
    24    14    15   ar
    25    16    17   ar
    26    16    15   ar
    27    17    18   ar
    28    19    18   ar
    29     5    15    1
    30     5     4   ar
    31    50    49    1
    32    49    48    3
    33    48    41    1
    34    18    27    1
    35    41    40   ar
    36    47    46    1
    37    38    46    1
    38    38    39   ar
    39    27    28   ar
    40    39    40   ar
    41    39    30    1
    42    40    44    1
    43    30    29   ar
    44     3     4   ar
    45     3     7    1
    46     4    11    1
    47    28    29   ar
    48    28    32    1
    49    29    35    1
    50    11    12    3
    51    35    36    3
    52    12    13    1
    53    36    37    1
