@<TRIPOS>MOLECULE
mol_data/opt/m06hf/geoms/mol2/6fe6fe6fe.out
 38 40 0 0 0
SMALL
GASTEIGER

@<TRIPOS>ATOM
      1 C          -4.5605   -2.1384   -0.0006 C.ar    1  LIG1        0.2129
      2 C          -3.1690   -2.2744   -0.0004 C.ar    1  LIG1        0.0010
      3 C          -2.4336   -1.1077   -0.0001 C.ar    1  LIG1       -0.0392
      4 C          -3.0514    0.1522   -0.0001 C.ar    1  LIG1        0.0510
      5 C          -4.4599    0.1947   -0.0004 C.ar    1  LIG1        0.0952
      6 N          -5.1474   -0.9590   -0.0006 N.ar    1  LIG1       -0.2116
      7 H          -1.3524   -1.1442    0.0001 H       1  LIG1        0.0632
      8 H          -2.6966   -3.2468   -0.0005 H       1  LIG1        0.0671
      9 O          -5.4053   -3.1795   -0.0009 O.3     1  LIG1       -0.4924
     10 H          -4.9337   -4.0195   -0.0009 H       1  LIG1        0.2937
     11 C          -2.1669    1.2897    0.0005 C.1     1  LIG1       -0.0675
     12 C          -1.3443    2.1671    0.0011 C.1     1  LIG1       -0.1138
     13 H          -0.6305    2.9596    0.0017 H       1  LIG1        0.1232
     14 C          -6.7332    1.3092   -0.0000 C.ar    1  LIG1        0.2224
     15 C          -5.3116    1.4132   -0.0004 C.ar    1  LIG1        0.0642
     16 C          -4.8136    2.7091   -0.0009 C.ar    1  LIG1       -0.0299
     17 C          -5.6333    3.8403   -0.0008 C.ar    1  LIG1        0.0516
     18 C          -7.0315    3.6443   -0.0002 C.ar    1  LIG1        0.0953
     19 N          -7.4986    2.3912    0.0001 N.ar    1  LIG1       -0.2111
     20 H          -3.7491    2.8776   -0.0013 H       1  LIG1        0.0639
     21 O          -7.3812    0.1672    0.0002 O.3     1  LIG1       -0.4919
     22 H          -6.6935   -0.5662   -0.0003 H       1  LIG1        0.2937
     23 C          -4.9401    5.1045   -0.0013 C.1     1  LIG1       -0.0675
     24 C          -4.2654    6.0999   -0.0017 C.1     1  LIG1       -0.1138
     25 H          -3.6892    6.9959   -0.0021 H       1  LIG1        0.1232
     26 C          -9.4713    4.3473    0.0007 C.ar    1  LIG1        0.2218
     27 C          -8.0799    4.6983    0.0000 C.ar    1  LIG1        0.0641
     28 C          -7.7788    6.0580   -0.0003 C.ar    1  LIG1       -0.0305
     29 C          -8.7922    7.0115    0.0000 C.ar    1  LIG1        0.0436
     30 C         -10.1125    6.5477    0.0007 C.ar    1  LIG1        0.0468
     31 N         -10.4346    5.2692    0.0010 N.ar    1  LIG1       -0.2197
     32 H          -6.7547    6.3944   -0.0008 H       1  LIG1        0.0638
     33 H         -10.9318    7.2575    0.0010 H       1  LIG1        0.0843
     34 O          -9.8899    3.1017    0.0010 O.3     1  LIG1       -0.4919
     35 H          -9.0772    2.5093    0.0007 H       1  LIG1        0.2937
     36 C          -8.5050    8.4226   -0.0003 C.1     1  LIG1       -0.0681
     37 C          -8.2751    9.6022   -0.0006 C.1     1  LIG1       -0.1139
     38 H          -8.0749   10.6481   -0.0009 H       1  LIG1        0.1232
@<TRIPOS>BOND
     1    25    24    1
     2    24    23    3
     3    20    16    1
     4    23    17    1
     5     9    10    1
     6     9     1    1
     7    16    17   ar
     8    16    15   ar
     9    38    37    1
    10    32    28    1
    11    17    18   ar
    12     1     6   ar
    13     1     2   ar
    14     6     5   ar
    15    37    36    3
    16     8     2    1
    17     2     3   ar
    18    15     5    1
    19    15    14   ar
    20     5     4   ar
    21    36    29    1
    22    28    29   ar
    23    28    27   ar
    24    22    21    1
    25    18    27    1
    26    18    19   ar
    27     3     4   ar
    28     3     7    1
    29     4    11    1
    30    14    19   ar
    31    14    21    1
    32    29    30   ar
    33    27    26   ar
    34    11    12    3
    35    35    34    1
    36    26    34    1
    37    26    31   ar
    38    30    33    1
    39    30    31   ar
    40    12    13    1
