@<TRIPOS>MOLECULE
mol_data/opt/m06hf/geoms/mol2/6fe6fe6fe-6fe-.out
 50 53 0 0 0
SMALL
GASTEIGER

@<TRIPOS>ATOM
      1 C          -4.4607   -2.2102   -0.2463 C.ar    1  LIG1        0.2129
      2 C          -3.0718   -2.2917   -0.3964 C.ar    1  LIG1        0.0010
      3 C          -2.3812   -1.0999   -0.4771 C.ar    1  LIG1       -0.0392
      4 C          -3.0454    0.1315   -0.3850 C.ar    1  LIG1        0.0510
      5 C          -4.4377    0.1138   -0.1803 C.ar    1  LIG1        0.0952
      6 N          -5.0902   -1.0578   -0.1373 N.ar    1  LIG1       -0.2116
      7 H          -1.3098   -1.0968   -0.6268 H       1  LIG1        0.0632
      8 H          -2.5687   -3.2461   -0.4687 H       1  LIG1        0.0671
      9 O          -5.2578   -3.2897   -0.2022 O.3     1  LIG1       -0.4924
     10 H          -4.7555   -4.1032   -0.3178 H       1  LIG1        0.2937
     11 C          -2.2558    1.3230   -0.5674 C.1     1  LIG1       -0.0675
     12 C          -1.5351    2.2690   -0.7434 C.1     1  LIG1       -0.1138
     13 H          -0.9162    3.1222   -0.9038 H       1  LIG1        0.1232
     14 C          -6.6984    1.2485   -0.2623 C.ar    1  LIG1        0.2224
     15 C          -5.2933    1.3177   -0.0275 C.ar    1  LIG1        0.0642
     16 C          -4.7893    2.5461    0.3830 C.ar    1  LIG1       -0.0299
     17 C          -5.6112    3.6690    0.4578 C.ar    1  LIG1        0.0516
     18 C          -6.9545    3.5079    0.0799 C.ar    1  LIG1        0.0953
     19 N          -7.4695    2.3278   -0.2344 N.ar    1  LIG1       -0.2111
     20 H          -3.7527    2.6471    0.6670 H       1  LIG1        0.0639
     21 O          -7.3183    0.1112   -0.5239 O.3     1  LIG1       -0.4919
     22 H          -6.6677   -0.6286   -0.3847 H       1  LIG1        0.2937
     23 C          -5.0969    4.9128    0.9685 C.1     1  LIG1       -0.0675
     24 C          -4.6570    5.9323    1.4280 C.1     1  LIG1       -0.1138
     25 H          -4.2804    6.8423    1.8332 H       1  LIG1        0.1232
     26 C          -7.6612    5.8595   -0.5833 C.ar    1  LIG1        0.2224
     27 C          -7.9147    4.6470    0.0834 C.ar    1  LIG1        0.0642
     28 C          -9.1418    4.5247    0.7056 C.ar    1  LIG1       -0.0299
     29 C         -10.0414    5.5998    0.7179 C.ar    1  LIG1        0.0516
     30 C          -9.6610    6.7741    0.0573 C.ar    1  LIG1        0.0953
     31 N          -8.4987    6.8774   -0.5868 N.ar    1  LIG1       -0.2111
     32 H          -9.4007    3.5931    1.1916 H       1  LIG1        0.0639
     33 O          -6.5353    5.9906   -1.2951 O.3     1  LIG1       -0.4919
     34 H          -6.5281    6.8851   -1.6625 H       1  LIG1        0.2937
     35 C         -11.2989    5.4833    1.4123 C.1     1  LIG1       -0.0675
     36 C         -12.3415    5.3620    1.9979 C.1     1  LIG1       -0.1138
     37 H         -13.2662    5.2613    2.5177 H       1  LIG1        0.1232
     38 C         -10.0905    9.2378    0.3924 C.ar    1  LIG1        0.2218
     39 C         -10.5540    7.9664    0.0054 C.ar    1  LIG1        0.0641
     40 C         -11.8608    7.8824   -0.4402 C.ar    1  LIG1       -0.0305
     41 C         -12.6542    9.0362   -0.5033 C.ar    1  LIG1        0.0436
     42 C         -12.0800   10.2401   -0.1042 C.ar    1  LIG1        0.0468
     43 N         -10.8283   10.3327    0.3372 N.ar    1  LIG1       -0.2197
     44 H         -12.2705    6.9282   -0.7443 H       1  LIG1        0.0638
     45 H         -12.6541   11.1571   -0.1427 H       1  LIG1        0.0843
     46 O          -8.8444    9.3669    0.8671 O.3     1  LIG1       -0.4919
     47 H          -8.7254   10.2987    1.0970 H       1  LIG1        0.2937
     48 C         -14.0160    8.9903   -0.9710 C.1     1  LIG1       -0.0681
     49 C         -15.1510    8.9525   -1.3633 C.1     1  LIG1       -0.1139
     50 H         -16.1564    8.9178   -1.7136 H       1  LIG1        0.1232
@<TRIPOS>BOND
     1    50    49    1
     2    34    33    1
     3    49    48    3
     4    33    26    1
     5    48    41    1
     6    13    12    1
     7    44    40    1
     8    12    11    3
     9     7     3    1
    10    31    26   ar
    11    31    30   ar
    12    26    27   ar
    13    11     4    1
    14    21    22    1
    15    21    14    1
    16    41    40   ar
    17    41    42   ar
    18     3     2   ar
    19     3     4   ar
    20     8     2    1
    21    40    39   ar
    22     2     1   ar
    23     4     5   ar
    24    10     9    1
    25    14    19   ar
    26    14    15   ar
    27     1     9    1
    28     1     6   ar
    29    19    18   ar
    30     5     6   ar
    31     5    15    1
    32    45    42    1
    33    42    43   ar
    34    15    16   ar
    35    39    30    1
    36    39    38   ar
    37    30    29   ar
    38    18    27    1
    39    18    17   ar
    40    27    28   ar
    41    43    38   ar
    42    16    17   ar
    43    16    20    1
    44    38    46    1
    45    17    23    1
    46    28    29   ar
    47    28    32    1
    48    29    35    1
    49    46    47    1
    50    23    24    3
    51    35    36    3
    52    24    25    1
    53    36    37    1
