@<TRIPOS>MOLECULE
mol_data/opt/m06hf/geoms/mol2/6fe6fe-4fe6fe.out
 51 54 0 0 0
SMALL
GASTEIGER

@<TRIPOS>ATOM
      1 C          -3.8907   -1.8911    1.2214 C.ar    1  LIG1        0.2129
      2 C          -2.8354   -2.1479    0.3335 C.ar    1  LIG1        0.0010
      3 C          -2.5822   -1.2114   -0.6486 C.ar    1  LIG1       -0.0392
      4 C          -3.3533   -0.0450   -0.7167 C.ar    1  LIG1        0.0510
      5 C          -4.3514    0.1265    0.2523 C.ar    1  LIG1        0.0952
      6 N          -4.6169   -0.7909    1.1804 N.ar    1  LIG1       -0.2116
      7 H          -1.8001   -1.3712   -1.3784 H       1  LIG1        0.0632
      8 H          -2.2525   -3.0564    0.4080 H       1  LIG1        0.0671
      9 O          -4.2371   -2.7643    2.1883 O.3     1  LIG1       -0.4924
     10 H          -3.6701   -3.5422    2.1675 H       1  LIG1        0.2937
     11 C          -3.1540    0.8930   -1.7908 C.1     1  LIG1       -0.0675
     12 C          -2.9826    1.6403   -2.7163 C.1     1  LIG1       -0.1138
     13 H          -2.8356    2.3103   -3.5318 H       1  LIG1        0.1232
     14 C          -4.7212    2.6404    0.2881 C.ar    1  LIG1        0.2224
     15 C          -5.2303    1.3296    0.2667 C.ar    1  LIG1        0.0642
     16 C          -6.6040    1.1949    0.3153 C.ar    1  LIG1       -0.0299
     17 C          -7.4273    2.3299    0.3152 C.ar    1  LIG1        0.0516
     18 C          -6.8066    3.5834    0.2773 C.ar    1  LIG1        0.0937
     19 N          -5.4810    3.7177    0.2762 N.ar    1  LIG1       -0.2111
     20 H          -7.0431    0.2065    0.3546 H       1  LIG1        0.0639
     21 O          -3.3964    2.8234    0.3510 O.3     1  LIG1       -0.4919
     22 H          -3.2342    3.7765    0.3323 H       1  LIG1        0.2937
     23 C          -8.8606    2.1884    0.3638 C.1     1  LIG1       -0.0675
     24 C         -10.0525    2.0427    0.4050 C.1     1  LIG1       -0.1138
     25 H         -11.1096    1.9176    0.4458 H       1  LIG1        0.1232
     26 C          -7.4479    5.8247    1.2179 C.ar    1  LIG1        0.1267
     27 C          -8.1994    6.9968    1.1629 C.ar    1  LIG1       -0.0105
     28 C          -7.6076    4.8431    0.2293 C.ar    1  LIG1        0.0443
     29 C          -9.1087    7.2166    0.1305 C.ar    1  LIG1        0.0061
     30 H          -8.0954    7.7446    1.9413 H       1  LIG1        0.0661
     31 C          -8.5188    5.0587   -0.7937 C.ar    1  LIG1       -0.0330
     32 C          -9.2679    6.2384   -0.8651 C.ar    1  LIG1        0.0334
     33 H          -8.6497    4.3048   -1.5591 H       1  LIG1        0.0638
     34 O          -6.5780    5.5760    2.2202 O.3     1  LIG1       -0.5061
     35 H          -6.5907    6.2845    2.8725 H       1  LIG1        0.2922
     36 C         -10.1877    6.4398   -1.9597 C.1     1  LIG1       -0.0690
     37 C         -10.9695    6.6024   -2.8580 C.1     1  LIG1       -0.1139
     38 H         -11.6637    6.7552   -3.6519 H       1  LIG1        0.1232
     39 C         -11.2928    8.5068    0.2029 C.ar    1  LIG1        0.2203
     40 C          -9.8823    8.4927    0.1036 C.ar    1  LIG1        0.0459
     41 C          -9.2349    9.7142    0.0289 C.ar    1  LIG1       -0.0320
     42 C          -9.9783   10.8989    0.0451 C.ar    1  LIG1        0.0436
     43 C         -11.3649   10.7849    0.1449 C.ar    1  LIG1        0.0468
     44 N         -12.0005    9.6222    0.2243 N.ar    1  LIG1       -0.2197
     45 H          -8.1559    9.7507   -0.0531 H       1  LIG1        0.0638
     46 H         -11.9793   11.6769    0.1635 H       1  LIG1        0.0843
     47 O         -12.0074    7.3786    0.3133 O.3     1  LIG1       -0.4920
     48 H         -11.4479    6.6032    0.1805 H       1  LIG1        0.2937
     49 C          -9.3440   12.1894   -0.0386 C.1     1  LIG1       -0.0681
     50 C          -8.8097   13.2635   -0.1088 C.1     1  LIG1       -0.1139
     51 H          -8.3348   14.2151   -0.1722 H       1  LIG1        0.1232
@<TRIPOS>BOND
     1    38    37    1
     2    13    12    1
     3    37    36    3
     4    12    11    3
     5    36    32    1
     6    11     4    1
     7    33    31    1
     8     7     3    1
     9    32    31   ar
    10    32    29   ar
    11    31    28   ar
    12     4     3   ar
    13     4     5   ar
    14     3     2   ar
    15    51    50    1
    16    50    49    3
    17    45    41    1
    18    49    42    1
    19    41    42   ar
    20    41    40   ar
    21    42    43   ar
    22    40    29    1
    23    40    39   ar
    24    29    27   ar
    25    43    46    1
    26    43    44   ar
    27    48    47    1
    28    39    44   ar
    29    39    47    1
    30    28    18    1
    31    28    26   ar
    32     5    15    1
    33     5     6   ar
    34    15    14   ar
    35    15    16   ar
    36    19    18   ar
    37    19    14   ar
    38    18    17   ar
    39    14    21    1
    40    17    16   ar
    41    17    23    1
    42    16    20    1
    43    22    21    1
    44     2     8    1
    45     2     1   ar
    46    23    24    3
    47    24    25    1
    48    27    26   ar
    49    27    30    1
    50     6     1   ar
    51    26    34    1
    52     1     9    1
    53    10     9    1
    54    34    35    1
