@<TRIPOS>MOLECULE
mol_data/opt/m06hf/geoms/mol2/6fe6fe6fe-6fe.out
 50 53 0 0 0
SMALL
GASTEIGER

@<TRIPOS>ATOM
      1 C          -4.3548   -2.0845   -0.9107 C.ar    1  LIG1        0.2129
      2 C          -2.9756   -2.1900   -0.6978 C.ar    1  LIG1        0.0010
      3 C          -2.3136   -1.0444   -0.3071 C.ar    1  LIG1       -0.0392
      4 C          -3.0031    0.1604   -0.1087 C.ar    1  LIG1        0.0510
      5 C          -4.3969    0.1565   -0.2955 C.ar    1  LIG1        0.0952
      6 N          -5.0129   -0.9613   -0.7078 N.ar    1  LIG1       -0.2116
      7 H          -1.2421   -1.0549   -0.1576 H       1  LIG1        0.0632
      8 H          -2.4531   -3.1237   -0.8543 H       1  LIG1        0.0671
      9 O          -5.1128   -3.1090   -1.3316 O.3     1  LIG1       -0.4924
     10 H          -4.5818   -3.8948   -1.4992 H       1  LIG1        0.2937
     11 C          -2.2232    1.3284    0.2126 C.1     1  LIG1       -0.0675
     12 C          -1.5098    2.2636    0.4598 C.1     1  LIG1       -0.1138
     13 H          -0.8944    3.1068    0.6749 H       1  LIG1        0.1232
     14 C          -6.5699    1.3836   -0.7164 C.ar    1  LIG1        0.2224
     15 C          -5.2882    1.3277   -0.0926 C.ar    1  LIG1        0.0642
     16 C          -4.9492    2.3890    0.7367 C.ar    1  LIG1       -0.0299
     17 C          -5.7888    3.4954    0.8617 C.ar    1  LIG1        0.0516
     18 C          -6.9656    3.4960    0.0972 C.ar    1  LIG1        0.0953
     19 N          -7.3442    2.4576   -0.6351 N.ar    1  LIG1       -0.2111
     20 H          -4.0348    2.3670    1.3103 H       1  LIG1        0.0639
     21 O          -7.0621    0.3752   -1.4134 O.3     1  LIG1       -0.4919
     22 H          -6.4627   -0.4082   -1.2798 H       1  LIG1        0.2937
     23 C          -5.4717    4.5487    1.7903 C.1     1  LIG1       -0.0675
     24 C          -5.2033    5.4007    2.5940 C.1     1  LIG1       -0.1138
     25 H          -4.9750    6.1609    3.3044 H       1  LIG1        0.1232
     26 C          -7.5181    5.9729   -0.1089 C.ar    1  LIG1        0.2224
     27 C          -7.9167    4.6422    0.1228 C.ar    1  LIG1        0.0642
     28 C          -9.2666    4.4278    0.3067 C.ar    1  LIG1       -0.0299
     29 C         -10.1589    5.5104    0.3432 C.ar    1  LIG1        0.0516
     30 C          -9.6414    6.8028    0.1910 C.ar    1  LIG1        0.0953
     31 N          -8.3437    6.9991   -0.0602 N.ar    1  LIG1       -0.2111
     32 H          -9.6348    3.4156    0.4144 H       1  LIG1        0.0639
     33 O          -6.2454    6.2222   -0.4299 O.3     1  LIG1       -0.4919
     34 H          -6.1478    7.1788   -0.5336 H       1  LIG1        0.2937
     35 C         -11.5693    5.2762    0.5162 C.1     1  LIG1       -0.0675
     36 C         -12.7448    5.0961    0.6977 C.1     1  LIG1       -0.1138
     37 H         -13.7893    4.9416    0.8451 H       1  LIG1        0.1232
     38 C         -11.3789    8.3955    1.2363 C.ar    1  LIG1        0.2218
     39 C         -10.4683    8.0470    0.2141 C.ar    1  LIG1        0.0641
     40 C         -10.2445    8.9819   -0.7890 C.ar    1  LIG1       -0.0305
     41 C         -10.9234   10.1988   -0.7784 C.ar    1  LIG1        0.0436
     42 C         -11.7975   10.4333    0.2859 C.ar    1  LIG1        0.0468
     43 N         -12.0105    9.5607    1.2581 N.ar    1  LIG1       -0.2197
     44 H          -9.5302    8.7587   -1.5702 H       1  LIG1        0.0638
     45 H         -12.3374   11.3707    0.3441 H       1  LIG1        0.0843
     46 O         -11.6328    7.6145    2.2975 O.3     1  LIG1       -0.4919
     47 H         -11.5077    6.6793    2.0948 H       1  LIG1        0.2937
     48 C         -10.7328   11.1850   -1.8112 C.1     1  LIG1       -0.0681
     49 C         -10.5765   12.0071   -2.6740 C.1     1  LIG1       -0.1139
     50 H         -10.4395   12.7331   -3.4419 H       1  LIG1        0.1232
@<TRIPOS>BOND
     1    50    49    1
     2    49    48    3
     3    48    41    1
     4    44    40    1
     5    10     9    1
     6    21    22    1
     7    21    14    1
     8     9     1    1
     9     1     6   ar
    10     1     2   ar
    11     8     2    1
    12    40    41   ar
    13    40    39   ar
    14    41    42   ar
    15    14    19   ar
    16    14    15   ar
    17     6     5   ar
    18     2     3   ar
    19    19    18   ar
    20    34    33    1
    21    33    26    1
    22     3     7    1
    23     3     4   ar
    24     5     4   ar
    25     5    15    1
    26    26    31   ar
    27    26    27   ar
    28     4    11    1
    29    15    16   ar
    30    31    30   ar
    31    18    27    1
    32    18    17   ar
    33    27    28   ar
    34    30    39    1
    35    30    29   ar
    36    11    12    3
    37    39    38   ar
    38    42    45    1
    39    42    43   ar
    40    28    29   ar
    41    28    32    1
    42    29    35    1
    43    12    13    1
    44    35    36    3
    45    36    37    1
    46    16    17   ar
    47    16    20    1
    48    17    23    1
    49    38    43   ar
    50    38    46    1
    51    23    24    3
    52    47    46    1
    53    24    25    1
