@<TRIPOS>MOLECULE
mol_data/opt/m06hf/geoms/mol2/6fe6fe-6fe.out
 38 40 0 0 0
SMALL
GASTEIGER

@<TRIPOS>ATOM
      1 C          -4.1069   -1.7901   -1.3147 C.ar    1  LIG1        0.2129
      2 C          -2.9344   -2.0547   -0.5904 C.ar    1  LIG1        0.0010
      3 C          -2.5430   -1.1301    0.3566 C.ar    1  LIG1       -0.0392
      4 C          -3.2974    0.0337    0.5508 C.ar    1  LIG1        0.0510
      5 C          -4.4237    0.2135   -0.2631 C.ar    1  LIG1        0.0952
      6 N          -4.8203   -0.6927   -1.1546 N.ar    1  LIG1       -0.2116
      7 H          -1.6637   -1.2969    0.9639 H       1  LIG1        0.0632
      8 H          -2.3669   -2.9601   -0.7607 H       1  LIG1        0.0671
      9 O          -4.5870   -2.6489   -2.2350 O.3     1  LIG1       -0.4924
     10 H          -4.0180   -3.4215   -2.3156 H       1  LIG1        0.2937
     11 C          -2.9510    0.9577    1.5994 C.1     1  LIG1       -0.0675
     12 C          -2.6573    1.6913    2.5048 C.1     1  LIG1       -0.1138
     13 H          -2.4041    2.3451    3.3073 H       1  LIG1        0.1232
     14 C          -4.7963    2.7298   -0.2067 C.ar    1  LIG1        0.2224
     15 C          -5.2962    1.4148   -0.1406 C.ar    1  LIG1        0.0642
     16 C          -6.6643    1.2821   -0.0288 C.ar    1  LIG1       -0.0299
     17 C          -7.4807    2.4170    0.0968 C.ar    1  LIG1        0.0516
     18 C          -6.8665    3.6762    0.1149 C.ar    1  LIG1        0.0953
     19 N          -5.5486    3.8023   -0.0664 N.ar    1  LIG1       -0.2111
     20 H          -7.1089    0.2954   -0.0481 H       1  LIG1        0.0639
     21 O          -3.4965    2.9160   -0.4548 O.3     1  LIG1       -0.4919
     22 H          -3.3227    3.8671   -0.4352 H       1  LIG1        0.2937
     23 C          -8.9108    2.2700    0.1845 C.1     1  LIG1       -0.0675
     24 C         -10.1029    2.1578    0.2940 C.1     1  LIG1       -0.1138
     25 H         -11.1612    2.0693    0.3831 H       1  LIG1        0.1232
     26 C          -8.5362    5.2477    1.2856 C.ar    1  LIG1        0.2218
     27 C          -7.6084    4.9641    0.2589 C.ar    1  LIG1        0.0641
     28 C          -7.2887    5.9944   -0.6162 C.ar    1  LIG1       -0.0305
     29 C          -7.8987    7.2404   -0.4856 C.ar    1  LIG1        0.0436
     30 C          -8.8066    7.4004    0.5645 C.ar    1  LIG1        0.0468
     31 N          -9.1066    6.4361    1.4202 N.ar    1  LIG1       -0.2197
     32 H          -6.5558    5.8199   -1.3927 H       1  LIG1        0.0638
     33 H          -9.2990    8.3542    0.7118 H       1  LIG1        0.0843
     34 O          -8.8740    4.3686    2.2402 O.3     1  LIG1       -0.4919
     35 H          -8.7020    3.4589    1.9715 H       1  LIG1        0.2937
     36 C          -7.6064    8.3287   -1.3831 C.1     1  LIG1       -0.0681
     37 C          -7.3629    9.2375   -2.1304 C.1     1  LIG1       -0.1139
     38 H          -7.1475   10.0430   -2.7935 H       1  LIG1        0.1232
@<TRIPOS>BOND
     1    38    37    1
     2    10     9    1
     3     9     1    1
     4    37    36    3
     5    32    28    1
     6    36    29    1
     7     1     6   ar
     8     1     2   ar
     9     6     5   ar
    10     8     2    1
    11    28    29   ar
    12    28    27   ar
    13     2     3   ar
    14    29    30   ar
    15    21    22    1
    16    21    14    1
    17     5    15    1
    18     5     4   ar
    19    14    15   ar
    20    14    19   ar
    21    15    16   ar
    22    19    18   ar
    23    20    16    1
    24    16    17   ar
    25    17    18   ar
    26    17    23    1
    27    18    27    1
    28    23    24    3
    29    27    26   ar
    30    24    25    1
    31     3     4   ar
    32     3     7    1
    33     4    11    1
    34    30    33    1
    35    30    31   ar
    36    26    31   ar
    37    26    34    1
    38    11    12    3
    39    35    34    1
    40    12    13    1
