@<TRIPOS>MOLECULE
mol_data/opt/m06hf/geoms/mol2/6fe6fe.out
 26 27 0 0 0
SMALL
GASTEIGER

@<TRIPOS>ATOM
      1 C          -4.5225   -2.0747   -0.0012 C.ar    1  LIG1        0.2129
      2 C          -3.1269   -2.1363   -0.0012 C.ar    1  LIG1        0.0010
      3 C          -2.4582   -0.9302   -0.0004 C.ar    1  LIG1       -0.0392
      4 C          -3.1435    0.2939    0.0002 C.ar    1  LIG1        0.0510
      5 C          -4.5550    0.2625   -0.0002 C.ar    1  LIG1        0.0952
      6 N          -5.1728   -0.9298   -0.0008 N.ar    1  LIG1       -0.2116
      7 H          -1.3764   -0.9074   -0.0002 H       1  LIG1        0.0632
      8 H          -2.6004   -3.0808   -0.0016 H       1  LIG1        0.0671
      9 O          -5.3074   -3.1640   -0.0017 O.3     1  LIG1       -0.4924
     10 H          -4.7838   -3.9724   -0.0020 H       1  LIG1        0.2937
     11 C          -2.3077    1.4683    0.0015 C.1     1  LIG1       -0.0675
     12 C          -1.5130    2.3713    0.0027 C.1     1  LIG1       -0.1138
     13 H          -0.8241    3.1853    0.0039 H       1  LIG1        0.1232
     14 C          -6.8939    1.2614    0.0016 C.ar    1  LIG1        0.2218
     15 C          -5.4716    1.4368    0.0000 C.ar    1  LIG1        0.0641
     16 C          -5.0071    2.7503   -0.0015 C.ar    1  LIG1       -0.0305
     17 C          -5.8965    3.8204   -0.0010 C.ar    1  LIG1        0.0436
     18 C          -7.2629    3.5228    0.0010 C.ar    1  LIG1        0.0468
     19 N          -7.7371    2.2920    0.0021 N.ar    1  LIG1       -0.2197
     20 H          -3.9501    2.9604   -0.0031 H       1  LIG1        0.0638
     21 H          -7.9894    4.3271    0.0015 H       1  LIG1        0.0843
     22 O          -7.4677    0.0756    0.0025 O.3     1  LIG1       -0.4919
     23 H          -6.7436   -0.6134    0.0013 H       1  LIG1        0.2937
     24 C          -5.4381    5.1859   -0.0024 C.1     1  LIG1       -0.0681
     25 C          -5.0692    6.3301   -0.0036 C.1     1  LIG1       -0.1139
     26 H          -4.7501    7.3466   -0.0047 H       1  LIG1        0.1232
@<TRIPOS>BOND
     1    26    25    1
     2    25    24    3
     3    20    16    1
     4    24    17    1
     5    10     9    1
     6     9     1    1
     7     8     2    1
     8    16    17   ar
     9    16    15   ar
    10     1     2   ar
    11     1     6   ar
    12     2     3   ar
    13    17    18   ar
    14     6     5   ar
    15     3     7    1
    16     3     4   ar
    17     5    15    1
    18     5     4   ar
    19    15    14   ar
    20     4    11    1
    21    18    21    1
    22    18    19   ar
    23    23    22    1
    24    11    12    3
    25    14    19   ar
    26    14    22    1
    27    12    13    1
