@<TRIPOS>MOLECULE
mol_data/opt/m06hf/geoms/mol2/6fe6fe-.out
 26 27 0 0 0
SMALL
GASTEIGER

@<TRIPOS>ATOM
      1 C          -4.3955   -2.0122   -0.6386 C.ar    1  LIG1        0.2129
      2 C          -3.0692   -2.0719   -0.1861 C.ar    1  LIG1        0.0010
      3 C          -2.5021   -0.9064    0.2894 C.ar    1  LIG1       -0.0392
      4 C          -3.2419    0.2820    0.2878 C.ar    1  LIG1        0.0510
      5 C          -4.5439    0.2319   -0.2303 C.ar    1  LIG1        0.0952
      6 N          -5.1015   -0.8985   -0.6610 N.ar    1  LIG1       -0.2116
      7 H          -1.4925   -0.8996    0.6776 H       1  LIG1        0.0632
      8 H          -2.5182   -3.0031   -0.1948 H       1  LIG1        0.0671
      9 O          -5.0460   -3.1041   -1.0877 O.3     1  LIG1       -0.4924
     10 H          -4.4811   -3.8825   -1.0449 H       1  LIG1        0.2937
     11 C          -2.6879    1.4774    0.8691 C.1     1  LIG1       -0.0675
     12 C          -2.2053    2.4456    1.3925 C.1     1  LIG1       -0.1138
     13 H          -1.7853    3.3098    1.8527 H       1  LIG1        0.1232
     14 C          -5.0224    2.6444   -0.8671 C.ar    1  LIG1        0.2218
     15 C          -5.4211    1.4358   -0.2704 C.ar    1  LIG1        0.0641
     16 C          -6.7047    1.3793    0.2428 C.ar    1  LIG1       -0.0305
     17 C          -7.5181    2.5187    0.2146 C.ar    1  LIG1        0.0436
     18 C          -6.9922    3.6758   -0.3575 C.ar    1  LIG1        0.0468
     19 N          -5.7772    3.7291   -0.8958 N.ar    1  LIG1       -0.2197
     20 H          -7.0692    0.4525    0.6660 H       1  LIG1        0.0638
     21 H          -7.5819    4.5830   -0.3903 H       1  LIG1        0.0843
     22 O          -3.8301    2.7111   -1.4743 O.3     1  LIG1       -0.4919
     23 H          -3.7203    3.6158   -1.7971 H       1  LIG1        0.2937
     24 C          -8.8512    2.5117    0.7609 C.1     1  LIG1       -0.0681
     25 C          -9.9633    2.5111    1.2165 C.1     1  LIG1       -0.1139
     26 H         -10.9501    2.5102    1.6186 H       1  LIG1        0.1232
@<TRIPOS>BOND
     1    23    22    1
     2    22    14    1
     3     9    10    1
     4     9     1    1
     5    19    14   ar
     6    19    18   ar
     7    14    15   ar
     8     6     1   ar
     9     6     5   ar
    10     1     2   ar
    11    21    18    1
    12    18    17   ar
    13    15     5    1
    14    15    16   ar
    15     5     4   ar
    16     8     2    1
    17     2     3   ar
    18    17    16   ar
    19    17    24    1
    20    16    20    1
    21     4     3   ar
    22     4    11    1
    23     3     7    1
    24    24    25    3
    25    11    12    3
    26    25    26    1
    27    12    13    1
