@<TRIPOS>MOLECULE
mol_data/opt/m06hf/geoms/mol2/6fe6fe6fe6fe.out
 50 53 0 0 0
SMALL
GASTEIGER

@<TRIPOS>ATOM
      1 C          -4.6635   -2.2358   -0.0003 C.ar    1  LIG1        0.2129
      2 C          -3.2809   -2.4435   -0.0004 C.ar    1  LIG1        0.0010
      3 C          -2.4846   -1.3185   -0.0003 C.ar    1  LIG1       -0.0392
      4 C          -3.0363   -0.0273   -0.0002 C.ar    1  LIG1        0.0510
      5 C          -4.4388    0.0879   -0.0003 C.ar    1  LIG1        0.0952
      6 N          -5.1880   -1.0273   -0.0003 N.ar    1  LIG1       -0.2116
      7 H          -1.4069   -1.4129   -0.0002 H       1  LIG1        0.0632
      8 H          -2.8600   -3.4396   -0.0004 H       1  LIG1        0.0671
      9 O          -5.5598   -3.2320   -0.0004 O.3     1  LIG1       -0.4924
     10 H          -5.1334   -4.0958   -0.0004 H       1  LIG1        0.2937
     11 C          -2.0938    1.0628    0.0001 C.1     1  LIG1       -0.0675
     12 C          -1.2276    1.8967    0.0003 C.1     1  LIG1       -0.1138
     13 H          -0.4733    2.6505   -0.0003 H       1  LIG1        0.1232
     14 C          -6.6522    1.3196    0.0003 C.ar    1  LIG1        0.2224
     15 C          -5.2252    1.3510   -0.0003 C.ar    1  LIG1        0.0642
     16 C          -4.6578    2.6169   -0.0009 C.ar    1  LIG1       -0.0299
     17 C          -5.4178    3.7906   -0.0009 C.ar    1  LIG1        0.0516
     18 C          -6.8208    3.6649   -0.0001 C.ar    1  LIG1        0.0953
     19 N          -7.3599    2.4405    0.0004 N.ar    1  LIG1       -0.2111
     20 H          -3.5858    2.7292   -0.0016 H       1  LIG1        0.0639
     21 O          -7.3577    0.2139    0.0006 O.3     1  LIG1       -0.4919
     22 H          -6.7079   -0.5548    0.0003 H       1  LIG1        0.2937
     23 C          -4.6740    5.0249   -0.0018 C.1     1  LIG1       -0.0675
     24 C          -3.9717    6.0015   -0.0027 C.1     1  LIG1       -0.1138
     25 H          -3.3696    6.8812   -0.0038 H       1  LIG1        0.1232
     26 C          -9.2108    4.4882    0.0003 C.ar    1  LIG1        0.2224
     27 C          -7.8123    4.7694    0.0002 C.ar    1  LIG1        0.0642
     28 C          -7.4769    6.1164    0.0005 C.ar    1  LIG1       -0.0299
     29 C          -8.4304    7.1374    0.0007 C.ar    1  LIG1        0.0516
     30 C          -9.7939    6.7694    0.0006 C.ar    1  LIG1        0.0953
     31 N         -10.1044    5.4690    0.0005 N.ar    1  LIG1       -0.2111
     32 H          -6.4407    6.4130    0.0006 H       1  LIG1        0.0639
     33 O          -9.7072    3.2759    0.0003 O.3     1  LIG1       -0.4919
     34 H          -8.9240    2.6351    0.0005 H       1  LIG1        0.2937
     35 C          -7.8992    8.4780    0.0010 C.1     1  LIG1       -0.0675
     36 C          -7.3540    9.5498    0.0012 C.1     1  LIG1       -0.1138
     37 H          -6.8926   10.5100    0.0016 H       1  LIG1        0.1232
     38 C         -12.3018    7.1675    0.0007 C.ar    1  LIG1        0.2218
     39 C         -10.9639    7.6870    0.0007 C.ar    1  LIG1        0.0641
     40 C         -10.8325    9.0733    0.0007 C.ar    1  LIG1       -0.0305
     41 C         -11.9559    9.8948    0.0009 C.ar    1  LIG1        0.0436
     42 C         -13.2089    9.2724    0.0009 C.ar    1  LIG1        0.0468
     43 N         -13.3715    7.9640    0.0009 N.ar    1  LIG1       -0.2197
     44 H          -9.8578    9.5330    0.0007 H       1  LIG1        0.0638
     45 H         -14.1092    9.8760    0.0010 H       1  LIG1        0.0843
     46 O         -12.5633    5.8801    0.0007 O.3     1  LIG1       -0.4919
     47 H         -11.6822    5.3930    0.0006 H       1  LIG1        0.2937
     48 C         -11.8435   11.3305    0.0009 C.1     1  LIG1       -0.0681
     49 C         -11.7574   12.5293    0.0010 C.1     1  LIG1       -0.1139
     50 H         -11.6837   13.5917    0.0010 H       1  LIG1        0.1232
@<TRIPOS>BOND
     1    25    24    1
     2    24    23    3
     3    23    17    1
     4    20    16    1
     5    16    17   ar
     6    16    15   ar
     7    17    18   ar
     8     8     2    1
     9    10     9    1
    10     9     1    1
    11     2     1   ar
    12     2     3   ar
    13     1     6   ar
    14    13    12    1
    15     6     5   ar
    16    15     5    1
    17    15    14   ar
    18     5     4   ar
    19     3     7    1
    20     3     4   ar
    21     4    11    1
    22    18    27    1
    23    18    19   ar
    24    11    12    3
    25    27    26   ar
    26    27    28   ar
    27    14    19   ar
    28    14    21    1
    29    22    21    1
    30    26    33    1
    31    26    31   ar
    32    33    34    1
    33    31    30   ar
    34    28    32    1
    35    28    29   ar
    36    47    46    1
    37    30    29   ar
    38    30    39    1
    39    46    38    1
    40    44    40    1
    41    29    35    1
    42    39    40   ar
    43    39    38   ar
    44    40    41   ar
    45    38    43   ar
    46    43    42   ar
    47    41    48    1
    48    41    42   ar
    49    48    49    3
    50    42    45    1
    51    50    49    1
    52    35    36    3
    53    36    37    1
