@<TRIPOS>MOLECULE
mol_data/opt/m06hf/geoms/mol2/6fe6fe-6fe-6fe.out
 50 53 0 0 0
SMALL
GASTEIGER

@<TRIPOS>ATOM
      1 C          -3.9410   -1.8677   -1.2882 C.ar    1  LIG1        0.2129
      2 C          -2.8573   -2.1423   -0.4408 C.ar    1  LIG1        0.0010
      3 C          -2.5664   -1.2219    0.5457 C.ar    1  LIG1       -0.0392
      4 C          -3.3296   -0.0533    0.6595 C.ar    1  LIG1        0.0510
      5 C          -4.3586    0.1372   -0.2725 C.ar    1  LIG1        0.0952
      6 N          -4.6599   -0.7655   -1.2044 N.ar    1  LIG1       -0.2116
      7 H          -1.7604   -1.3959    1.2456 H       1  LIG1        0.0632
      8 H          -2.2805   -3.0514   -0.5498 H       1  LIG1        0.0671
      9 O          -4.3241   -2.7215   -2.2578 O.3     1  LIG1       -0.4924
     10 H          -3.7519   -3.4956   -2.2806 H       1  LIG1        0.2937
     11 C          -3.0910    0.8611    1.7461 C.1     1  LIG1       -0.0675
     12 C          -2.8872    1.5826    2.6852 C.1     1  LIG1       -0.1138
     13 H          -2.7126    2.2268    3.5158 H       1  LIG1        0.1232
     14 C          -4.7252    2.6551   -0.2479 C.ar    1  LIG1        0.2224
     15 C          -5.2338    1.3429   -0.2474 C.ar    1  LIG1        0.0642
     16 C          -6.6075    1.2097   -0.2941 C.ar    1  LIG1       -0.0299
     17 C          -7.4331    2.3428   -0.2729 C.ar    1  LIG1        0.0516
     18 C          -6.8126    3.5960   -0.2093 C.ar    1  LIG1        0.0953
     19 N          -5.4872    3.7300   -0.2084 N.ar    1  LIG1       -0.2111
     20 H          -7.0455    0.2220   -0.3565 H       1  LIG1        0.0639
     21 O          -3.4029    2.8411   -0.3230 O.3     1  LIG1       -0.4919
     22 H          -3.2390    3.7941   -0.3137 H       1  LIG1        0.2937
     23 C          -8.8653    2.1928   -0.3352 C.1     1  LIG1       -0.0675
     24 C         -10.0557    2.0353   -0.3888 C.1     1  LIG1       -0.1138
     25 H         -11.1113    1.8993   -0.4443 H       1  LIG1        0.1232
     26 C          -7.3559    5.9387   -1.0028 C.ar    1  LIG1        0.2224
     27 C          -7.6069    4.8546   -0.1352 C.ar    1  LIG1        0.0642
     28 C          -8.6115    5.0299    0.7938 C.ar    1  LIG1       -0.0299
     29 C          -9.3284    6.2361    0.8518 C.ar    1  LIG1        0.0516
     30 C          -9.0117    7.2379   -0.0729 C.ar    1  LIG1        0.0953
     31 N          -8.0316    7.0705   -0.9657 N.ar    1  LIG1       -0.2111
     32 H          -8.8452    4.2405    1.4963 H       1  LIG1        0.0639
     33 O          -6.4097    5.8249   -1.9379 O.3     1  LIG1       -0.4919
     34 H          -6.4220    6.6375   -2.4628 H       1  LIG1        0.2937
     35 C         -10.3370    6.4285    1.8620 C.1     1  LIG1       -0.0675
     36 C         -11.2020    6.5835    2.6823 C.1     1  LIG1       -0.1138
     37 H         -11.9675    6.7354    3.4084 H       1  LIG1        0.1232
     38 C         -11.0786    8.7620   -0.1850 C.ar    1  LIG1        0.2218
     39 C          -9.6816    8.5714   -0.1095 C.ar    1  LIG1        0.0641
     40 C          -8.8775    9.7018   -0.1658 C.ar    1  LIG1       -0.0305
     41 C          -9.4537   10.9674   -0.2574 C.ar    1  LIG1        0.0436
     42 C         -10.8484   11.0314   -0.3167 C.ar    1  LIG1        0.0468
     43 N         -11.6288    9.9625   -0.2872 N.ar    1  LIG1       -0.2197
     44 H          -7.8014    9.5891   -0.1433 H       1  LIG1        0.0638
     45 H         -11.3406   11.9933   -0.3969 H       1  LIG1        0.0843
     46 O         -11.9600    7.7525   -0.2114 O.3     1  LIG1       -0.4919
     47 H         -11.5661    6.9239    0.0840 H       1  LIG1        0.2937
     48 C          -8.6558   12.1659   -0.2980 C.1     1  LIG1       -0.0681
     49 C          -7.9942   13.1681   -0.3298 C.1     1  LIG1       -0.1139
     50 H          -7.4088   14.0573   -0.3577 H       1  LIG1        0.1232
@<TRIPOS>BOND
     1    34    33    1
     2    10     9    1
     3     9     1    1
     4    33    26    1
     5     1     6   ar
     6     1     2   ar
     7     6     5   ar
     8    26    31   ar
     9    26    27   ar
    10    31    30   ar
    11     8     2    1
    12    25    24    1
    13     2     3   ar
    14    45    42    1
    15    24    23    3
    16    50    49    1
    17    20    16    1
    18    23    17    1
    19    49    48    3
    20    21    22    1
    21    21    14    1
    22    42    43   ar
    23    42    41   ar
    24    48    41    1
    25    16    17   ar
    26    16    15   ar
    27    43    38   ar
    28    17    18   ar
    29     5    15    1
    30     5     4   ar
    31    41    40   ar
    32    14    15   ar
    33    14    19   ar
    34    46    38    1
    35    46    47    1
    36    18    19   ar
    37    18    27    1
    38    38    39   ar
    39    40    44    1
    40    40    39   ar
    41    27    28   ar
    42    39    30    1
    43    30    29   ar
    44     3     4   ar
    45     3     7    1
    46     4    11    1
    47    28    29   ar
    48    28    32    1
    49    29    35    1
    50    11    12    3
    51    35    36    3
    52    36    37    1
    53    12    13    1
