@<TRIPOS>MOLECULE
mol_data/opt/m06hf/geoms/mol2/6fe6fe-6fe6fe-.out
 50 53 0 0 0
SMALL
GASTEIGER

@<TRIPOS>ATOM
      1 C          -3.3605   -1.5956    1.1397 C.ar    1  LIG1        0.2129
      2 C          -2.5921   -1.9595    0.0239 C.ar    1  LIG1        0.0010
      3 C          -2.7158   -1.1938   -1.1181 C.ar    1  LIG1       -0.0392
      4 C          -3.5704   -0.0846   -1.1263 C.ar    1  LIG1        0.0510
      5 C          -4.2567    0.2076    0.0599 C.ar    1  LIG1        0.0952
      6 N          -4.1613   -0.5475    1.1523 N.ar    1  LIG1       -0.2116
      7 H          -2.1679   -1.4445   -2.0161 H       1  LIG1        0.0632
      8 H          -1.9360   -2.8194    0.0553 H       1  LIG1        0.0671
      9 O          -3.3306   -2.2996    2.2882 O.3     1  LIG1       -0.4924
     10 H          -2.7346   -3.0523    2.2152 H       1  LIG1        0.2937
     11 C          -3.7732    0.6680   -2.3368 C.1     1  LIG1       -0.0675
     12 C          -3.9452    1.2564   -3.3701 C.1     1  LIG1       -0.1138
     13 H          -4.1006    1.7833   -4.2831 H       1  LIG1        0.1232
     14 C          -4.8316    2.6762   -0.1711 C.ar    1  LIG1        0.2224
     15 C          -5.1996    1.3569    0.1566 C.ar    1  LIG1        0.0642
     16 C          -6.4767    1.1767    0.6442 C.ar    1  LIG1       -0.0299
     17 C          -7.3671    2.2591    0.7206 C.ar    1  LIG1        0.0516
     18 C          -6.9227    3.5145    0.2870 C.ar    1  LIG1        0.0953
     19 N          -5.6628    3.6971   -0.1204 N.ar    1  LIG1       -0.2111
     20 H          -6.7884    0.1945    0.9752 H       1  LIG1        0.0639
     21 O          -3.5680    2.9263   -0.5267 O.3     1  LIG1       -0.4919
     22 H          -3.5020    3.8644   -0.7526 H       1  LIG1        0.2937
     23 C          -8.6935    2.0666    1.2479 C.1     1  LIG1       -0.0675
     24 C          -9.8162    1.9098    1.6504 C.1     1  LIG1       -0.1138
     25 H         -10.8106    1.7812    2.0130 H       1  LIG1        0.1232
     26 C          -9.0548    4.8579   -0.2517 C.ar    1  LIG1        0.2224
     27 C          -7.7630    4.7484    0.3071 C.ar    1  LIG1        0.0642
     28 C          -7.1918    5.9113    0.8055 C.ar    1  LIG1       -0.0299
     29 C          -7.8951    7.1148    0.8002 C.ar    1  LIG1        0.0516
     30 C          -9.1942    7.0928    0.2689 C.ar    1  LIG1        0.0953
     31 N          -9.7270    5.9972   -0.2586 N.ar    1  LIG1       -0.2111
     32 H          -6.1788    5.8805    1.1840 H       1  LIG1        0.0639
     33 O          -9.6839    3.8475   -0.8710 O.3     1  LIG1       -0.4919
     34 H          -9.3601    2.9886   -0.5757 H       1  LIG1        0.2937
     35 C          -7.2639    8.3266    1.2545 C.1     1  LIG1       -0.0675
     36 C          -6.6991    9.3243    1.6142 C.1     1  LIG1       -0.1138
     37 H          -6.2083   10.2129    1.9370 H       1  LIG1        0.1232
     38 C         -10.3049    9.1223    1.3190 C.ar    1  LIG1        0.2218
     39 C         -10.0398    8.3177    0.1968 C.ar    1  LIG1        0.0641
     40 C         -10.6515    8.6728   -0.9921 C.ar    1  LIG1       -0.0305
     41 C         -11.4374    9.8305   -1.0536 C.ar    1  LIG1        0.0436
     42 C         -11.5842   10.5764    0.1143 C.ar    1  LIG1        0.0468
     43 N         -11.0401   10.2199    1.2742 N.ar    1  LIG1       -0.2197
     44 H         -10.5148    8.0521   -1.8680 H       1  LIG1        0.0638
     45 H         -12.1717   11.4859    0.1087 H       1  LIG1        0.0843
     46 O          -9.8245    8.7531    2.5133 O.3     1  LIG1       -0.4919
     47 H         -10.0909    9.4252    3.1550 H       1  LIG1        0.2937
     48 C         -12.0715   10.2494   -2.2776 C.1     1  LIG1       -0.0681
     49 C         -12.6000   10.5954   -3.2997 C.1     1  LIG1       -0.1139
     50 H         -13.0679   10.8973   -4.2078 H       1  LIG1        0.1232
@<TRIPOS>BOND
     1    13    12    1
     2    50    49    1
     3    12    11    3
     4    49    48    3
     5    11     4    1
     6    48    41    1
     7     7     3    1
     8    44    40    1
     9     4     3   ar
    10     4     5   ar
    11     3     2   ar
    12    41    40   ar
    13    41    42   ar
    14    40    39   ar
    15    33    34    1
    16    33    26    1
    17    22    21    1
    18    21    14    1
    19    31    26   ar
    20    31    30   ar
    21    26    27   ar
    22    14    19   ar
    23    14    15   ar
    24    19    18   ar
    25     2     8    1
    26     2     1   ar
    27     5    15    1
    28     5     6   ar
    29    45    42    1
    30    42    43   ar
    31    15    16   ar
    32    39    30    1
    33    39    38   ar
    34    30    29   ar
    35    18    27    1
    36    18    17   ar
    37    27    28   ar
    38    16    17   ar
    39    16    20    1
    40    17    23    1
    41    29    28   ar
    42    29    35    1
    43    28    32    1
    44     1     6   ar
    45     1     9    1
    46    23    24    3
    47    35    36    3
    48    43    38   ar
    49    38    46    1
    50    36    37    1
    51    24    25    1
    52    10     9    1
    53    46    47    1
