@<TRIPOS>MOLECULE
mol_data/opt/m06hf/geoms/mol2/6ff.out
 13 13 0 0 0
SMALL
GASTEIGER

@<TRIPOS>ATOM
      1 C          -4.5695   -2.0301    0.0001 C.ar    1  LIG1        0.2124
      2 C          -3.1674   -2.0156    0.0000 C.ar    1  LIG1        0.0033
      3 C          -2.5212   -0.7926   -0.0002 C.ar    1  LIG1       -0.0136
      4 C          -3.2860    0.3721   -0.0003 C.ar    1  LIG1        0.1351
      5 C          -4.6695    0.2451   -0.0002 C.ar    1  LIG1        0.0728
      6 N          -5.2940   -0.9308   -0.0000 N.ar    1  LIG1       -0.2178
      7 H          -1.4422   -0.7177   -0.0002 H       1  LIG1        0.0656
      8 H          -2.6030   -2.9392    0.0001 H       1  LIG1        0.0672
      9 H          -5.3022    1.1276   -0.0003 H       1  LIG1        0.0868
     10 O          -5.2766   -3.1873    0.0003 O.3     1  LIG1       -0.4924
     11 H          -4.6840   -3.9451    0.0003 H       1  LIG1        0.2937
     12 O          -2.6414    1.5725   -0.0004 O.3     1  LIG1       -0.5052
     13 H          -3.2733    2.2991   -0.0005 H       1  LIG1        0.2922
@<TRIPOS>BOND
     1    13    12    1
     2    12     4    1
     3     4     5   ar
     4     4     3   ar
     5     9     5    1
     6     7     3    1
     7     5     6   ar
     8     3     2   ar
     9     6     1   ar
    10     2     1   ar
    11     2     8    1
    12     1    10    1
    13    10    11    1
