@<TRIPOS>MOLECULE
mol_data/opt/m06hf/geoms/mol2/6ff6ff-.out
 24 25 0 0 0
SMALL
GASTEIGER

@<TRIPOS>ATOM
      1 C          -4.5193   -2.0100   -0.3872 C.ar    1  LIG1        0.2130
      2 C          -3.1785   -2.1344    0.0080 C.ar    1  LIG1        0.0033
      3 C          -2.5181   -0.9883    0.3979 C.ar    1  LIG1       -0.0130
      4 C          -3.1788    0.2452    0.3933 C.ar    1  LIG1        0.1431
      5 C          -4.5097    0.2612   -0.0376 C.ar    1  LIG1        0.1212
      6 N          -5.1453   -0.8590   -0.4068 N.ar    1  LIG1       -0.2092
      7 H          -1.4883   -1.0074    0.7290 H       1  LIG1        0.0656
      8 H          -2.6840   -3.0972    0.0123 H       1  LIG1        0.0672
      9 O          -5.2622   -3.0797   -0.7684 O.3     1  LIG1       -0.4924
     10 H          -4.7340   -3.8839   -0.7427 H       1  LIG1        0.2937
     11 O          -2.5073    1.3205    0.8676 O.3     1  LIG1       -0.5046
     12 H          -2.7448    2.1141    0.3495 H       1  LIG1        0.2922
     13 C          -4.9591    2.7756   -0.3625 C.ar    1  LIG1        0.2220
     14 C          -5.3745    1.4802   -0.0431 C.ar    1  LIG1        0.0688
     15 C          -6.7290    1.3286    0.2474 C.ar    1  LIG1       -0.0043
     16 C          -7.5720    2.4325    0.2461 C.ar    1  LIG1        0.1357
     17 C          -7.0299    3.6791   -0.0565 C.ar    1  LIG1        0.0728
     18 N          -5.7456    3.8314   -0.3600 N.ar    1  LIG1       -0.2172
     19 H          -7.0966    0.3305    0.4583 H       1  LIG1        0.0663
     20 H          -7.6626    4.5570   -0.0596 H       1  LIG1        0.0868
     21 O          -3.6622    3.0003   -0.7382 O.3     1  LIG1       -0.4919
     22 H          -3.5792    3.9449   -0.9319 H       1  LIG1        0.2937
     23 O          -8.9007    2.3719    0.5298 O.3     1  LIG1       -0.5052
     24 H          -9.1817    1.4587    0.6495 H       1  LIG1        0.2922
@<TRIPOS>BOND
     1    22    21    1
     2     9    10    1
     3     9     1    1
     4    21    13    1
     5     6     1   ar
     6     6     5   ar
     7     1     2   ar
     8    13    18   ar
     9    13    14   ar
    10    18    17   ar
    11    20    17    1
    12    17    16   ar
    13    14     5    1
    14    14    15   ar
    15     5     4   ar
    16     2     8    1
    17     2     3   ar
    18    16    15   ar
    19    16    23    1
    20    15    19    1
    21    12    11    1
    22     4     3   ar
    23     4    11    1
    24     3     7    1
    25    23    24    1
