@<TRIPOS>MOLECULE
mol_data/opt/m06hf/geoms/mol2/6ff6ff6ff.out
 35 37 0 0 0
SMALL
GASTEIGER

@<TRIPOS>ATOM
      1 C          -4.4320   -2.1071   -0.5596 C.ar    1  LIG1        0.2130
      2 C          -3.0773   -2.1983   -0.2128 C.ar    1  LIG1        0.0033
      3 C          -2.4651   -1.0630    0.2819 C.ar    1  LIG1       -0.0130
      4 C          -3.1789    0.1306    0.3834 C.ar    1  LIG1        0.1431
      5 C          -4.5018    0.1533   -0.0627 C.ar    1  LIG1        0.1212
      6 N          -5.0961   -0.9745   -0.4834 N.ar    1  LIG1       -0.2092
      7 H          -1.4344   -1.0699    0.6109 H       1  LIG1        0.0656
      8 H          -2.5406   -3.1333   -0.3026 H       1  LIG1        0.0672
      9 O          -5.1542   -3.1608   -0.9907 O.3     1  LIG1       -0.4924
     10 H          -4.6278   -3.9669   -0.9958 H       1  LIG1        0.2937
     11 O          -2.5376    1.2106    0.9149 O.3     1  LIG1       -0.5046
     12 H          -3.1604    1.7556    1.4135 H       1  LIG1        0.2922
     13 C          -6.7619    1.2625    0.0333 C.ar    1  LIG1        0.2226
     14 C          -5.3480    1.3756   -0.0583 C.ar    1  LIG1        0.0689
     15 C          -4.8215    2.6606   -0.1387 C.ar    1  LIG1       -0.0036
     16 C          -5.6510    3.7761   -0.0890 C.ar    1  LIG1        0.1438
     17 C          -7.0297    3.5746    0.0068 C.ar    1  LIG1        0.1213
     18 N          -7.5302    2.3341    0.0869 N.ar    1  LIG1       -0.2086
     19 H          -3.7584    2.8298   -0.2577 H       1  LIG1        0.0663
     20 O          -7.3834    0.0912    0.0706 O.3     1  LIG1       -0.4919
     21 H          -6.7359   -0.6059   -0.2110 H       1  LIG1        0.2937
     22 O          -5.0600    5.0062   -0.1276 O.3     1  LIG1       -0.5046
     23 H          -5.5923    5.6410    0.3695 H       1  LIG1        0.2922
     24 C          -9.2554    4.5188    0.7268 C.ar    1  LIG1        0.2220
     25 C          -8.0132    4.6888    0.0551 C.ar    1  LIG1        0.0688
     26 C          -7.7769    5.9112   -0.5709 C.ar    1  LIG1       -0.0043
     27 C          -8.7080    6.9357   -0.4495 C.ar    1  LIG1        0.1357
     28 C          -9.8508    6.6894    0.3012 C.ar    1  LIG1        0.0728
     29 N         -10.1178    5.5121    0.8556 N.ar    1  LIG1       -0.2172
     30 H          -6.8960    6.0777   -1.1791 H       1  LIG1        0.0663
     31 H         -10.5920    7.4704    0.4464 H       1  LIG1        0.0868
     32 O          -9.6116    3.3522    1.2610 O.3     1  LIG1       -0.4919
     33 H          -9.0220    2.6517    0.8883 H       1  LIG1        0.2937
     34 O          -8.4483    8.1260   -1.0636 O.3     1  LIG1       -0.5052
     35 H          -9.1916    8.7295   -0.9592 H       1  LIG1        0.2922
@<TRIPOS>BOND
     1    30    26    1
     2    34    35    1
     3    34    27    1
     4    10     9    1
     5     9     1    1
     6    26    27   ar
     7    26    25   ar
     8     1     6   ar
     9     1     2   ar
    10     6     5   ar
    11    27    28   ar
    12     8     2    1
    13    19    15    1
    14     2     3   ar
    15    21    20    1
    16    15    16   ar
    17    15    14   ar
    18    22    16    1
    19    22    23    1
    20    16    17   ar
    21     5    14    1
    22     5     4   ar
    23    14    13   ar
    24    17    25    1
    25    17    18   ar
    26    13    20    1
    27    13    18   ar
    28    25    24   ar
    29     3     4   ar
    30     3     7    1
    31    28    31    1
    32    28    29   ar
    33     4    11    1
    34    24    29   ar
    35    24    32    1
    36    33    32    1
    37    11    12    1
