@<TRIPOS>MOLECULE
mol_data/opt/m06hf/geoms/mol2/6ff6ff-4ff6ff.out
 47 50 0 0 0
SMALL
GASTEIGER

@<TRIPOS>ATOM
      1 C          -4.2671   -2.0516    0.8041 C.ar    1  LIG1        0.2130
      2 C          -3.0943   -2.3410    0.0890 C.ar    1  LIG1        0.0033
      3 C          -2.5645   -1.3436   -0.7011 C.ar    1  LIG1       -0.0130
      4 C          -3.1881   -0.0923   -0.7750 C.ar    1  LIG1        0.1431
      5 C          -4.3422    0.0972   -0.0087 C.ar    1  LIG1        0.1212
      6 N          -4.8546   -0.8820    0.7508 N.ar    1  LIG1       -0.2092
      7 H          -1.6707   -1.4969   -1.2908 H       1  LIG1        0.0656
      8 H          -2.6273   -3.3154    0.1524 H       1  LIG1        0.0672
      9 O          -4.8757   -2.9707    1.5951 O.3     1  LIG1       -0.4924
     10 H          -4.3799   -3.7956    1.5979 H       1  LIG1        0.2937
     11 O          -2.6687    0.8161   -1.6326 O.3     1  LIG1       -0.5046
     12 H          -2.7591    1.7164   -1.2638 H       1  LIG1        0.2922
     13 C          -4.6857    2.6535   -0.1280 C.ar    1  LIG1        0.2226
     14 C          -5.1651    1.3439   -0.0200 C.ar    1  LIG1        0.0689
     15 C          -6.5421    1.2254    0.1365 C.ar    1  LIG1       -0.0036
     16 C          -7.3568    2.3505    0.1515 C.ar    1  LIG1        0.1437
     17 C          -6.7642    3.6109    0.0066 C.ar    1  LIG1        0.1197
     18 N          -5.4439    3.7243   -0.1301 N.ar    1  LIG1       -0.2087
     19 H          -6.9547    0.2310    0.2680 H       1  LIG1        0.0663
     20 O          -3.3390    2.8803   -0.2096 O.3     1  LIG1       -0.4919
     21 H          -3.2134    3.8398   -0.2416 H       1  LIG1        0.2937
     22 O          -8.7101    2.2700    0.2924 O.3     1  LIG1       -0.5046
     23 H          -8.9624    1.3857    0.5796 H       1  LIG1        0.2922
     24 C          -7.2094    5.9651    0.7783 C.ar    1  LIG1        0.1269
     25 C          -7.9922    7.1152    0.7500 C.ar    1  LIG1       -0.0082
     26 C          -7.5797    4.8579    0.0055 C.ar    1  LIG1        0.0489
     27 C          -9.1476    7.2038   -0.0278 C.ar    1  LIG1        0.0322
     28 H          -7.7199    7.9630    1.3694 H       1  LIG1        0.0661
     29 C          -8.7397    4.9338   -0.7614 C.ar    1  LIG1       -0.0068
     30 C          -9.5087    6.0877   -0.7840 C.ar    1  LIG1        0.1256
     31 H          -9.0425    4.0674   -1.3384 H       1  LIG1        0.0662
     32 O          -6.1051    5.8736    1.5648 O.3     1  LIG1       -0.5061
     33 H          -6.0265    6.6576    2.1183 H       1  LIG1        0.2922
     34 O         -10.6532    6.1729   -1.5452 O.3     1  LIG1       -0.5061
     35 H         -10.7683    5.3831   -2.0845 H       1  LIG1        0.2922
     36 C         -11.3186    8.5364    0.1910 C.ar    1  LIG1        0.2205
     37 C          -9.9229    8.4790   -0.0328 C.ar    1  LIG1        0.0505
     38 C          -9.2437    9.6819   -0.1785 C.ar    1  LIG1       -0.0058
     39 C          -9.9365   10.8833   -0.0707 C.ar    1  LIG1        0.1357
     40 C         -11.2993   10.8257    0.1870 C.ar    1  LIG1        0.0728
     41 N         -11.9650    9.6804    0.3034 N.ar    1  LIG1       -0.2173
     42 H          -8.1801    9.7006   -0.3799 H       1  LIG1        0.0662
     43 H         -11.8791   11.7377    0.2973 H       1  LIG1        0.0868
     44 O         -12.0596    7.4205    0.3544 O.3     1  LIG1       -0.4920
     45 H         -11.7758    6.7527   -0.2912 H       1  LIG1        0.2937
     46 O          -9.2445   12.0495   -0.2148 O.3     1  LIG1       -0.5052
     47 H          -9.8416   12.8035   -0.1609 H       1  LIG1        0.2922
@<TRIPOS>BOND
     1    35    34    1
     2    11    12    1
     3    11     4    1
     4    34    30    1
     5    31    29    1
     6     7     3    1
     7    30    29   ar
     8    30    27   ar
     9     4     3   ar
    10     4     5   ar
    11    29    26   ar
    12     3     2   ar
    13    42    38    1
    14    45    44    1
    15    21    20    1
    16    46    47    1
    17    46    39    1
    18    20    13    1
    19    38    39   ar
    20    38    37   ar
    21    18    13   ar
    22    18    17   ar
    23    13    14   ar
    24    39    40   ar
    25    37    27    1
    26    37    36   ar
    27    27    25   ar
    28    14     5    1
    29    14    15   ar
    30     5     6   ar
    31    26    17    1
    32    26    24   ar
    33    17    16   ar
    34     2     8    1
    35     2     1   ar
    36    15    16   ar
    37    15    19    1
    38    16    22    1
    39    40    43    1
    40    40    41   ar
    41    36    41   ar
    42    36    44    1
    43    22    23    1
    44    25    24   ar
    45    25    28    1
    46     6     1   ar
    47    24    32    1
    48     1     9    1
    49    32    33    1
    50     9    10    1
