@<TRIPOS>MOLECULE
mol_data/opt/m06hf/geoms/mol2/6ff6ff-6ff-6ff.out
 46 49 0 0 0
SMALL
GASTEIGER

@<TRIPOS>ATOM
      1 C          -4.3194   -2.0598    0.8324 C.ar    1  LIG1        0.2130
      2 C          -3.1392   -2.3633    0.1349 C.ar    1  LIG1        0.0033
      3 C          -2.5906   -1.3757   -0.6544 C.ar    1  LIG1       -0.0130
      4 C          -3.2028   -0.1196   -0.7440 C.ar    1  LIG1        0.1431
      5 C          -4.3646    0.0841    0.0062 C.ar    1  LIG1        0.1212
      6 N          -4.8960   -0.8857    0.7646 N.ar    1  LIG1       -0.2092
      7 H          -1.6905   -1.5401   -1.2315 H       1  LIG1        0.0656
      8 H          -2.6811   -3.3411    0.2111 H       1  LIG1        0.0672
      9 O          -4.9474   -2.9697    1.6184 O.3     1  LIG1       -0.4924
     10 H          -4.4593   -3.7990    1.6329 H       1  LIG1        0.2937
     11 O          -2.6657    0.7791   -1.6012 O.3     1  LIG1       -0.5046
     12 H          -2.7446    1.6811   -1.2354 H       1  LIG1        0.2922
     13 C          -4.6813    2.6432   -0.1311 C.ar    1  LIG1        0.2226
     14 C          -5.1755    1.3381   -0.0234 C.ar    1  LIG1        0.0689
     15 C          -6.5552    1.2339    0.1136 C.ar    1  LIG1       -0.0036
     16 C          -7.3598    2.3665    0.1104 C.ar    1  LIG1        0.1438
     17 C          -6.7533    3.6199   -0.0350 C.ar    1  LIG1        0.1213
     18 N          -5.4301    3.7197   -0.1523 N.ar    1  LIG1       -0.2086
     19 H          -6.9801    0.2446    0.2443 H       1  LIG1        0.0663
     20 O          -3.3327    2.8565   -0.1903 O.3     1  LIG1       -0.4919
     21 H          -3.1938    3.8147   -0.2132 H       1  LIG1        0.2937
     22 O          -8.7164    2.2975    0.2322 O.3     1  LIG1       -0.5046
     23 H          -8.9793    1.4223    0.5375 H       1  LIG1        0.2922
     24 C          -7.1362    6.0391    0.6146 C.ar    1  LIG1        0.2226
     25 C          -7.5517    4.8737   -0.0573 C.ar    1  LIG1        0.0689
     26 C          -8.7508    4.9586   -0.7479 C.ar    1  LIG1       -0.0036
     27 C          -9.4746    6.1456   -0.7571 C.ar    1  LIG1        0.1438
     28 C          -8.9959    7.2431   -0.0446 C.ar    1  LIG1        0.1213
     29 N          -7.8326    7.1557    0.6099 N.ar    1  LIG1       -0.2086
     30 H          -9.1198    4.0897   -1.2805 H       1  LIG1        0.0663
     31 O          -5.9974    6.0338    1.3280 O.3     1  LIG1       -0.4919
     32 H          -5.9348    6.8969    1.7602 H       1  LIG1        0.2937
     33 O         -10.6436    6.2752   -1.4693 O.3     1  LIG1       -0.5046
     34 H         -10.8622    5.4569   -1.9289 H       1  LIG1        0.2922
     35 C         -11.0646    8.7384    0.2389 C.ar    1  LIG1        0.2220
     36 C          -9.6792    8.5678    0.0212 C.ar    1  LIG1        0.0688
     37 C          -8.8821    9.7050   -0.0312 C.ar    1  LIG1       -0.0043
     38 C          -9.4620   10.9567    0.1220 C.ar    1  LIG1        0.1357
     39 C         -10.8327   11.0133    0.3453 C.ar    1  LIG1        0.0728
     40 N         -11.6034    9.9334    0.3993 N.ar    1  LIG1       -0.2172
     41 H          -7.8128    9.6168   -0.1715 H       1  LIG1        0.0663
     42 H         -11.3279   11.9699    0.4875 H       1  LIG1        0.0868
     43 O         -11.9126    7.6970    0.3616 O.3     1  LIG1       -0.4919
     44 H         -11.6804    7.0114   -0.2865 H       1  LIG1        0.2937
     45 O          -8.6667   12.0626    0.0546 O.3     1  LIG1       -0.5052
     46 H          -9.1853   12.8594    0.2095 H       1  LIG1        0.2922
@<TRIPOS>BOND
     1    34    33    1
     2    11    12    1
     3    11     4    1
     4    33    27    1
     5    30    26    1
     6     7     3    1
     7    27    26   ar
     8    27    28   ar
     9    26    25   ar
    10     4     3   ar
    11     4     5   ar
    12     3     2   ar
    13    44    43    1
    14    21    20    1
    15    20    13    1
    16    41    37    1
    17    18    13   ar
    18    18    17   ar
    19    13    14   ar
    20    25    17    1
    21    25    24   ar
    22    28    36    1
    23    28    29   ar
    24    17    16   ar
    25    37    36   ar
    26    37    38   ar
    27    14     5    1
    28    14    15   ar
    29     5     6   ar
    30    36    35   ar
    31    45    38    1
    32    45    46    1
    33    16    15   ar
    34    16    22    1
    35    15    19    1
    36    38    39   ar
    37     2     8    1
    38     2     1   ar
    39    22    23    1
    40    35    43    1
    41    35    40   ar
    42    39    40   ar
    43    39    42    1
    44    29    24   ar
    45    24    31    1
    46     6     1   ar
    47     1     9    1
    48    31    32    1
    49     9    10    1
