@<TRIPOS>MOLECULE
mol_data/opt/m06hf/geoms/mol2/6ff6ff-6ff6ff-.out
 46 49 0 0 0
SMALL
GASTEIGER

@<TRIPOS>ATOM
      1 C          -4.4504   -2.1838    0.3871 C.ar    1  LIG1        0.2130
      2 C          -3.0799   -2.3241    0.1140 C.ar    1  LIG1        0.0033
      3 C          -2.3721   -1.1860   -0.2063 C.ar    1  LIG1       -0.0130
      4 C          -3.0120    0.0590   -0.2496 C.ar    1  LIG1        0.1431
      5 C          -4.3749    0.0906    0.0609 C.ar    1  LIG1        0.1212
      6 N          -5.0579   -1.0237    0.3600 N.ar    1  LIG1       -0.2092
      7 H          -1.3169   -1.2176   -0.4429 H       1  LIG1        0.0656
      8 H          -2.5998   -3.2935    0.1484 H       1  LIG1        0.0672
      9 O          -5.2396   -3.2435    0.6910 O.3     1  LIG1       -0.4924
     10 H          -4.7253   -4.0570    0.7033 H       1  LIG1        0.2937
     11 O          -2.2810    1.1225   -0.6554 O.3     1  LIG1       -0.5046
     12 H          -2.5595    1.9259   -0.1775 H       1  LIG1        0.2922
     13 C          -4.8362    2.6144    0.3663 C.ar    1  LIG1        0.2226
     14 C          -5.2251    1.3175    0.0119 C.ar    1  LIG1        0.0689
     15 C          -6.5561    1.1830   -0.3652 C.ar    1  LIG1       -0.0036
     16 C          -7.3951    2.2869   -0.4079 C.ar    1  LIG1        0.1438
     17 C          -6.9021    3.5429   -0.0439 C.ar    1  LIG1        0.1213
     18 N          -5.6251    3.6624    0.3297 N.ar    1  LIG1       -0.2086
     19 H          -6.9154    0.1911   -0.6171 H       1  LIG1        0.0663
     20 O          -3.5696    2.8388    0.8213 O.3     1  LIG1       -0.4919
     21 H          -3.5052    3.7752    1.0596 H       1  LIG1        0.2937
     22 O          -8.6995    2.1885   -0.8222 O.3     1  LIG1       -0.5046
     23 H          -8.9209    1.2802   -1.0571 H       1  LIG1        0.2922
     24 C          -9.0137    4.9448    0.4057 C.ar    1  LIG1        0.2226
     25 C          -7.6926    4.8062   -0.0789 C.ar    1  LIG1        0.0689
     26 C          -7.0612    5.9533   -0.5331 C.ar    1  LIG1       -0.0036
     27 C          -7.7088    7.1871   -0.5188 C.ar    1  LIG1        0.1438
     28 C          -9.0036    7.2226    0.0120 C.ar    1  LIG1        0.1213
     29 N          -9.6138    6.1139    0.4420 N.ar    1  LIG1       -0.2086
     30 H          -6.0480    5.9080   -0.9100 H       1  LIG1        0.0663
     31 O          -9.7178    3.9120    0.9121 O.3     1  LIG1       -0.4919
     32 H          -9.5423    3.1112    0.3911 H       1  LIG1        0.2937
     33 O          -7.0663    8.2450   -1.0675 O.3     1  LIG1       -0.5046
     34 H          -7.2622    9.0528   -0.5546 H       1  LIG1        0.2922
     35 C          -9.4111    9.7494    0.3123 C.ar    1  LIG1        0.2220
     36 C          -9.8578    8.4480    0.0668 C.ar    1  LIG1        0.0688
     37 C         -11.2343    8.2968   -0.0940 C.ar    1  LIG1       -0.0043
     38 C         -12.0697    9.4051   -0.0495 C.ar    1  LIG1        0.1357
     39 C         -11.4981   10.6566    0.1647 C.ar    1  LIG1        0.0728
     40 N         -10.1916   10.8091    0.3492 N.ar    1  LIG1       -0.2172
     41 H         -11.6206    7.2934   -0.2377 H       1  LIG1        0.0663
     42 H         -12.1248   11.5382    0.1979 H       1  LIG1        0.0868
     43 O          -8.0864    9.9807    0.5681 O.3     1  LIG1       -0.4919
     44 H          -7.9886   10.9305    0.7262 H       1  LIG1        0.2937
     45 O         -13.4195    9.3462   -0.2064 O.3     1  LIG1       -0.5052
     46 H         -13.7129    8.4340   -0.3015 H       1  LIG1        0.2922
@<TRIPOS>BOND
     1    33    34    1
     2    33    27    1
     3    23    22    1
     4    30    26    1
     5    22    16    1
     6    11     4    1
     7    11    12    1
     8    19    15    1
     9    26    27   ar
    10    26    25   ar
    11    27    28   ar
    12     7     3    1
    13    16    15   ar
    14    16    17   ar
    15    15    14   ar
    16    46    45    1
    17     4     3   ar
    18     4     5   ar
    19    41    37    1
    20    45    38    1
    21     3     2   ar
    22    37    38   ar
    23    37    36   ar
    24    25    17    1
    25    25    24   ar
    26    38    39   ar
    27    17    18   ar
    28    14     5    1
    29    14    13   ar
    30    28    36    1
    31    28    29   ar
    32     5     6   ar
    33    36    35   ar
    34     2     8    1
    35     2     1   ar
    36    39    42    1
    37    39    40   ar
    38    35    40   ar
    39    35    43    1
    40    18    13   ar
    41     6     1   ar
    42    13    20    1
    43     1     9    1
    44    32    31    1
    45    24    29   ar
    46    24    31    1
    47    43    44    1
    48     9    10    1
    49    20    21    1
