@<TRIPOS>MOLECULE
mol_data/opt/m06hf/geoms/mol2/6ff6ff6ff6ff.out
 46 49 0 0 0
SMALL
GASTEIGER

@<TRIPOS>ATOM
      1 C          -4.3958   -2.1599   -0.7277 C.ar    1  LIG1        0.2130
      2 C          -3.0961   -2.3286   -0.2311 C.ar    1  LIG1        0.0033
      3 C          -2.5132   -1.2542    0.4120 C.ar    1  LIG1       -0.0130
      4 C          -3.1950   -0.0422    0.5145 C.ar    1  LIG1        0.1431
      5 C          -4.4544    0.0647   -0.0789 C.ar    1  LIG1        0.1212
      6 N          -5.0274   -1.0087   -0.6470 N.ar    1  LIG1       -0.2092
      7 H          -1.5296   -1.3247    0.8575 H       1  LIG1        0.0656
      8 H          -2.5832   -3.2763   -0.3235 H       1  LIG1        0.0672
      9 O          -5.0945   -3.1492   -1.3164 O.3     1  LIG1       -0.4924
     10 H          -4.5973   -3.9737   -1.3251 H       1  LIG1        0.2937
     11 O          -2.5840    0.9772    1.1880 O.3     1  LIG1       -0.5046
     12 H          -3.2301    1.4579    1.7224 H       1  LIG1        0.2922
     13 C          -6.6768    1.2427   -0.2262 C.ar    1  LIG1        0.2226
     14 C          -5.2624    1.3124   -0.0880 C.ar    1  LIG1        0.0689
     15 C          -4.7081    2.5817    0.0363 C.ar    1  LIG1       -0.0036
     16 C          -5.5109    3.7175    0.0633 C.ar    1  LIG1        0.1438
     17 C          -6.8915    3.5606   -0.0735 C.ar    1  LIG1        0.1213
     18 N          -7.4195    2.3335   -0.1894 N.ar    1  LIG1       -0.2086
     19 H          -3.6372    2.7267    0.1001 H       1  LIG1        0.0663
     20 O          -7.3241    0.1015   -0.3977 O.3     1  LIG1       -0.4919
     21 H          -6.6504   -0.5995   -0.6150 H       1  LIG1        0.2937
     22 O          -4.8924    4.9283    0.2257 O.3     1  LIG1       -0.5046
     23 H          -5.3933    5.4713    0.8487 H       1  LIG1        0.2922
     24 C          -9.2198    4.4503    0.2803 C.ar    1  LIG1        0.2226
     25 C          -7.8614    4.6860   -0.0738 C.ar    1  LIG1        0.0689
     26 C          -7.5142    5.9920   -0.4055 C.ar    1  LIG1       -0.0036
     27 C          -8.4532    7.0163   -0.3520 C.ar    1  LIG1        0.1438
     28 C          -9.7634    6.6986    0.0130 C.ar    1  LIG1        0.1213
     29 N         -10.0917    5.4404    0.3354 N.ar    1  LIG1       -0.2086
     30 H          -6.5142    6.2449   -0.7333 H       1  LIG1        0.0663
     31 O          -9.6819    3.2439    0.5705 O.3     1  LIG1       -0.4919
     32 H          -8.9958    2.5806    0.2788 H       1  LIG1        0.2937
     33 O          -8.0281    8.2795   -0.6513 O.3     1  LIG1       -0.5046
     34 H          -8.5482    8.9271   -0.1579 H       1  LIG1        0.2922
     35 C         -11.9349    7.5140    1.0024 C.ar    1  LIG1        0.2220
     36 C         -10.8520    7.7075    0.1001 C.ar    1  LIG1        0.0688
     37 C         -10.8729    8.8468   -0.7021 C.ar    1  LIG1       -0.0043
     38 C         -11.8860    9.7839   -0.5378 C.ar    1  LIG1        0.1357
     39 C         -12.8460    9.5380    0.4359 C.ar    1  LIG1        0.0728
     40 N         -12.8738    8.4297    1.1674 N.ar    1  LIG1       -0.2172
     41 H         -10.1348    9.0077   -1.4786 H       1  LIG1        0.0663
     42 H         -13.6388   10.2577    0.6194 H       1  LIG1        0.0868
     43 O         -12.0575    6.4023    1.7249 O.3     1  LIG1       -0.4919
     44 H         -11.4583    5.7176    1.3359 H       1  LIG1        0.2937
     45 O         -11.8799   10.8953   -1.3296 O.3     1  LIG1       -0.5052
     46 H         -12.6639   11.4303   -1.1664 H       1  LIG1        0.2922
@<TRIPOS>BOND
     1    41    37    1
     2    45    46    1
     3    45    38    1
     4    10     9    1
     5     9     1    1
     6    30    26    1
     7     1     6   ar
     8     1     2   ar
     9    37    38   ar
    10    37    36   ar
    11    33    27    1
    12    33    34    1
    13     6     5   ar
    14    21    20    1
    15    38    39   ar
    16    26    27   ar
    17    26    25   ar
    18    20    13    1
    19    27    28   ar
    20     8     2    1
    21     2     3   ar
    22    13    18   ar
    23    13    14   ar
    24    18    17   ar
    25    14     5    1
    26    14    15   ar
    27     5     4   ar
    28    25    17    1
    29    25    24   ar
    30    17    16   ar
    31    28    36    1
    32    28    29   ar
    33    15    16   ar
    34    15    19    1
    35    16    22    1
    36    36    35   ar
    37    22    23    1
    38    32    31    1
    39    24    29   ar
    40    24    31    1
    41     3     4   ar
    42     3     7    1
    43    39    42    1
    44    39    40   ar
    45     4    11    1
    46    35    40   ar
    47    35    43    1
    48    11    12    1
    49    44    43    1
