@<TRIPOS>MOLECULE
mol_data/opt/m06hf/geoms/mol2/6ff6ff6ff-6ff-.out
 46 49 0 0 0
SMALL
GASTEIGER

@<TRIPOS>ATOM
      1 C          -4.5297   -2.2514    0.1833 C.ar    1  LIG1        0.2130
      2 C          -3.1356   -2.3500    0.0935 C.ar    1  LIG1        0.0033
      3 C          -2.4139   -1.1760   -0.0100 C.ar    1  LIG1       -0.0130
      4 C          -3.0758    0.0501   -0.0623 C.ar    1  LIG1        0.1431
      5 C          -4.4734    0.0504   -0.0425 C.ar    1  LIG1        0.1212
      6 N          -5.1534   -1.0959    0.1145 N.ar    1  LIG1       -0.2092
      7 H          -1.3324   -1.1750   -0.0405 H       1  LIG1        0.0656
      8 H          -2.6411   -3.3112    0.1331 H       1  LIG1        0.0672
      9 O          -5.3340   -3.3237    0.3466 O.3     1  LIG1       -0.4924
     10 H          -4.8184   -4.1318    0.4361 H       1  LIG1        0.2937
     11 O          -2.3177    1.1788   -0.1231 O.3     1  LIG1       -0.5046
     12 H          -2.8055    1.9261    0.2472 H       1  LIG1        0.2922
     13 C          -6.5670    1.3650    0.4752 C.ar    1  LIG1        0.2226
     14 C          -5.2838    1.2926   -0.1353 C.ar    1  LIG1        0.0689
     15 C          -4.8560    2.4149   -0.8328 C.ar    1  LIG1       -0.0036
     16 C          -5.6206    3.5831   -0.8625 C.ar    1  LIG1        0.1438
     17 C          -6.8190    3.5805   -0.1398 C.ar    1  LIG1        0.1213
     18 N          -7.2619    2.4803    0.4797 N.ar    1  LIG1       -0.2086
     19 H          -3.9401    2.4081   -1.4121 H       1  LIG1        0.0663
     20 O          -7.1297    0.3086    1.0641 O.3     1  LIG1       -0.4919
     21 H          -6.6208   -0.4951    0.7971 H       1  LIG1        0.2937
     22 O          -5.1773    4.6000   -1.6390 O.3     1  LIG1       -0.5046
     23 H          -5.3833    5.4569   -1.2164 H       1  LIG1        0.2922
     24 C          -7.4248    6.0890   -0.0727 C.ar    1  LIG1        0.2226
     25 C          -7.7662    4.7326   -0.0728 C.ar    1  LIG1        0.0689
     26 C          -9.1261    4.4621    0.0465 C.ar    1  LIG1       -0.0036
     27 C         -10.0532    5.4923    0.1279 C.ar    1  LIG1        0.1438
     28 C          -9.5945    6.8155    0.0818 C.ar    1  LIG1        0.1213
     29 N          -8.2916    7.0720   -0.0178 N.ar    1  LIG1       -0.2086
     30 H          -9.4338    3.4233    0.0938 H       1  LIG1        0.0663
     31 O          -6.1096    6.4636   -0.1013 O.3     1  LIG1       -0.4919
     32 H          -6.0917    7.4309   -0.0547 H       1  LIG1        0.2937
     33 O         -11.3926    5.2609    0.2395 O.3     1  LIG1       -0.5046
     34 H         -11.5516    4.3427    0.4845 H       1  LIG1        0.2922
     35 C         -10.2480    9.1053    0.9225 C.ar    1  LIG1        0.2220
     36 C         -10.5289    7.9707    0.1424 C.ar    1  LIG1        0.0688
     37 C         -11.7177    7.9758   -0.5786 C.ar    1  LIG1       -0.0043
     38 C         -12.5608    9.0806   -0.5175 C.ar    1  LIG1        0.1357
     39 C         -12.1783   10.1544    0.2757 C.ar    1  LIG1        0.0728
     40 N         -11.0480   10.1540    0.9774 N.ar    1  LIG1       -0.2172
     41 H         -11.9792    7.1109   -1.1776 H       1  LIG1        0.0663
     42 H         -12.8149   11.0276    0.3413 H       1  LIG1        0.0868
     43 O          -9.1358    9.1452    1.6823 O.3     1  LIG1       -0.4919
     44 H          -9.1681    9.9786    2.1715 H       1  LIG1        0.2937
     45 O         -13.7399    9.1738   -1.1965 O.3     1  LIG1       -0.5052
     46 H         -13.9366    8.3465   -1.6475 H       1  LIG1        0.2922
@<TRIPOS>BOND
     1    46    45    1
     2    22    23    1
     3    22    16    1
     4    19    15    1
     5    45    38    1
     6    41    37    1
     7    16    15   ar
     8    16    17   ar
     9    15    14   ar
    10    37    38   ar
    11    37    36   ar
    12    38    39   ar
    13    17    25    1
    14    17    18   ar
    15    14     5    1
    16    14    13   ar
    17    11     4    1
    18    11    12    1
    19    31    24    1
    20    31    32    1
    21    25    24   ar
    22    25    26   ar
    23    24    29   ar
    24     4     5   ar
    25     4     3   ar
    26     5     6   ar
    27     7     3    1
    28    29    28   ar
    29     3     2   ar
    30    26    30    1
    31    26    27   ar
    32    28    27   ar
    33    28    36    1
    34     2     8    1
    35     2     1   ar
    36     6     1   ar
    37    27    33    1
    38    36    35   ar
    39     1     9    1
    40    33    34    1
    41    39    42    1
    42    39    40   ar
    43     9    10    1
    44    13    18   ar
    45    13    20    1
    46    21    20    1
    47    35    40   ar
    48    35    43    1
    49    43    44    1
