@<TRIPOS>MOLECULE
mol_data/opt/m06hf/geoms/mol2/6ff6ff6ff6ff-.out
 46 49 0 0 0
SMALL
GASTEIGER

@<TRIPOS>ATOM
      1 C          -4.4242   -2.1954   -0.5044 C.ar    1  LIG1        0.2130
      2 C          -3.0932   -2.3189   -0.0856 C.ar    1  LIG1        0.0033
      3 C          -2.4826   -1.1987    0.4443 C.ar    1  LIG1       -0.0130
      4 C          -3.1707    0.0123    0.5084 C.ar    1  LIG1        0.1431
      5 C          -4.4674    0.0676   -0.0085 C.ar    1  LIG1        0.1212
      6 N          -5.0641   -1.0468   -0.4615 N.ar    1  LIG1       -0.2092
      7 H          -1.4712   -1.2312    0.8270 H       1  LIG1        0.0656
      8 H          -2.5750   -3.2661   -0.1479 H       1  LIG1        0.0672
      9 O          -5.1465   -3.2292   -0.9797 O.3     1  LIG1       -0.4924
     10 H          -4.6387   -4.0470   -0.9638 H       1  LIG1        0.2937
     11 O          -2.5310    1.0781    1.0719 O.3     1  LIG1       -0.5046
     12 H          -3.1593    1.6180    1.5692 H       1  LIG1        0.2922
     13 C          -6.7032    1.2286   -0.0750 C.ar    1  LIG1        0.2226
     14 C          -5.2830    1.3093   -0.0583 C.ar    1  LIG1        0.0689
     15 C          -4.7231    2.5819   -0.0949 C.ar    1  LIG1       -0.0036
     16 C          -5.5281    3.7164   -0.1086 C.ar    1  LIG1        0.1438
     17 C          -6.9146    3.5465   -0.1211 C.ar    1  LIG1        0.1213
     18 N          -7.4481    2.3176   -0.0801 N.ar    1  LIG1       -0.2086
     19 H          -3.6510    2.7286   -0.1338 H       1  LIG1        0.0663
     20 O          -7.3518    0.0718   -0.0889 O.3     1  LIG1       -0.4919
     21 H          -6.6952   -0.6395   -0.3139 H       1  LIG1        0.2937
     22 O          -4.9072    4.9315   -0.1033 O.3     1  LIG1       -0.5046
     23 H          -5.4662    5.5853    0.3368 H       1  LIG1        0.2922
     24 C          -9.1790    4.5343    0.3947 C.ar    1  LIG1        0.2226
     25 C          -7.8732    4.6808   -0.1528 C.ar    1  LIG1        0.0689
     26 C          -7.5707    5.9049   -0.7364 C.ar    1  LIG1       -0.0036
     27 C          -8.4804    6.9626   -0.7088 C.ar    1  LIG1        0.1438
     28 C          -9.6955    6.7448   -0.0494 C.ar    1  LIG1        0.1213
     29 N         -10.0146    5.5481    0.4548 N.ar    1  LIG1       -0.2086
     30 H          -6.6429    6.0647   -1.2724 H       1  LIG1        0.0663
     31 O          -9.6197    3.3683    0.8642 O.3     1  LIG1       -0.4919
     32 H          -8.9987    2.6619    0.5534 H       1  LIG1        0.2937
     33 O          -8.1472    8.0941   -1.3756 O.3     1  LIG1       -0.5046
     34 H          -8.4708    8.8731   -0.8835 H       1  LIG1        0.2922
     35 C         -10.6141    9.1383    0.2122 C.ar    1  LIG1        0.2220
     36 C         -10.7871    7.7594    0.0607 C.ar    1  LIG1        0.0688
     37 C         -12.1053    7.3065    0.0620 C.ar    1  LIG1       -0.0043
     38 C         -13.1545    8.2096    0.1696 C.ar    1  LIG1        0.1357
     39 C         -12.8535    9.5645    0.2827 C.ar    1  LIG1        0.0728
     40 N         -11.6003   10.0050    0.3093 N.ar    1  LIG1       -0.2172
     41 H         -12.2731    6.2373   -0.0084 H       1  LIG1        0.0663
     42 H         -13.6520   10.2903    0.3636 H       1  LIG1        0.0868
     43 O          -9.3529    9.6638    0.3016 O.3     1  LIG1       -0.4919
     44 H          -9.4512   10.6194    0.4194 H       1  LIG1        0.2937
     45 O         -14.4661    7.8502    0.1673 O.3     1  LIG1       -0.5052
     46 H         -14.5547    6.8915    0.1480 H       1  LIG1        0.2922
@<TRIPOS>BOND
     1    33    34    1
     2    33    27    1
     3    30    26    1
     4     9    10    1
     5     9     1    1
     6    26    27   ar
     7    26    25   ar
     8    27    28   ar
     9     1     6   ar
    10     1     2   ar
    11     6     5   ar
    12    21    20    1
    13    25    17    1
    14    25    24   ar
    15     8     2    1
    16    19    15    1
    17    17    16   ar
    18    17    18   ar
    19    16    22    1
    20    16    15   ar
    21    22    23    1
    22    15    14   ar
    23    20    13    1
    24     2     3   ar
    25    18    13   ar
    26    13    14   ar
    27    14     5    1
    28    28    36    1
    29    28    29   ar
    30     5     4   ar
    31    41    37    1
    32    36    37   ar
    33    36    35   ar
    34    37    38   ar
    35    46    45    1
    36    45    38    1
    37    38    39   ar
    38    35    43    1
    39    35    40   ar
    40    39    40   ar
    41    39    42    1
    42    43    44    1
    43    24    29   ar
    44    24    31    1
    45     3     4   ar
    46     3     7    1
    47     4    11    1
    48    32    31    1
    49    11    12    1
