@<TRIPOS>MOLECULE
mol_data/opt/m06hf/geoms/mol2/6ff6ff-6ff-6ff-.out
 46 49 0 0 0
SMALL
GASTEIGER

@<TRIPOS>ATOM
      1 C          -4.0848   -1.9657    0.9139 C.ar    1  LIG1        0.2130
      2 C          -3.1299   -2.3695   -0.0329 C.ar    1  LIG1        0.0033
      3 C          -2.8285   -1.4907   -1.0511 C.ar    1  LIG1       -0.0130
      4 C          -3.4620   -0.2441   -1.1220 C.ar    1  LIG1        0.1431
      5 C          -4.3811    0.0684   -0.1147 C.ar    1  LIG1        0.1212
      6 N          -4.6742   -0.7970    0.8667 N.ar    1  LIG1       -0.2092
      7 H          -2.1138   -1.7374   -1.8248 H       1  LIG1        0.0656
      8 H          -2.6537   -3.3394    0.0320 H       1  LIG1        0.0672
      9 O          -4.4686   -2.7681    1.9387 O.3     1  LIG1       -0.4924
     10 H          -3.9839   -3.5992    1.9167 H       1  LIG1        0.2937
     11 O          -3.1909    0.5348   -2.1939 O.3     1  LIG1       -0.5046
     12 H          -3.1888    1.4766   -1.9323 H       1  LIG1        0.2922
     13 C          -4.7644    2.5961   -0.4793 C.ar    1  LIG1        0.2226
     14 C          -5.1862    1.3258   -0.0721 C.ar    1  LIG1        0.0689
     15 C          -6.4710    1.2708    0.4589 C.ar    1  LIG1       -0.0036
     16 C          -7.2628    2.4094    0.5342 C.ar    1  LIG1        0.1438
     17 C          -6.7442    3.6217    0.0626 C.ar    1  LIG1        0.1213
     18 N          -5.5083    3.6748   -0.4318 N.ar    1  LIG1       -0.2086
     19 H          -6.8263    0.3153    0.8298 H       1  LIG1        0.0663
     20 O          -3.4884    2.7775   -0.9357 O.3     1  LIG1       -0.4919
     21 H          -3.3838    3.7220   -1.1235 H       1  LIG1        0.2937
     22 O          -8.5289    2.3825    1.0409 O.3     1  LIG1       -0.5046
     23 H          -8.6906    1.5421    1.4833 H       1  LIG1        0.2922
     24 C          -6.9495    6.1179    0.4257 C.ar    1  LIG1        0.2226
     25 C          -7.5332    4.8810    0.0923 C.ar    1  LIG1        0.0689
     26 C          -8.8840    4.9015   -0.2282 C.ar    1  LIG1       -0.0036
     27 C          -9.5965    6.0966   -0.2133 C.ar    1  LIG1        0.1438
     28 C          -8.9194    7.2709    0.1208 C.ar    1  LIG1        0.1213
     29 N          -7.6210    7.2495    0.4242 N.ar    1  LIG1       -0.2086
     30 H          -9.3843    3.9738   -0.4802 H       1  LIG1        0.0663
     31 O          -5.6558    6.1834    0.7913 O.3     1  LIG1       -0.4919
     32 H          -5.4911    7.1038    1.0388 H       1  LIG1        0.2937
     33 O         -10.9249    6.1607   -0.5332 O.3     1  LIG1       -0.5046
     34 H         -11.3271    5.2898   -0.4502 H       1  LIG1        0.2922
     35 C          -9.4066    9.5127    1.1765 C.ar    1  LIG1        0.2220
     36 C          -9.6095    8.5893    0.1371 C.ar    1  LIG1        0.0688
     37 C         -10.4668    8.9679   -0.8888 C.ar    1  LIG1       -0.0043
     38 C         -11.0647   10.2244   -0.8640 C.ar    1  LIG1        0.1357
     39 C         -10.7795   11.0654    0.2029 C.ar    1  LIG1        0.0728
     40 N          -9.9718   10.7055    1.1974 N.ar    1  LIG1       -0.2172
     41 H         -10.6645    8.2742   -1.6981 H       1  LIG1        0.0663
     42 H         -11.2261   12.0509    0.2449 H       1  LIG1        0.0868
     43 O          -8.6290    9.1859    2.2270 O.3     1  LIG1       -0.4919
     44 H          -8.6428    9.9452    2.8249 H       1  LIG1        0.2937
     45 O         -11.9078   10.6823   -1.8345 O.3     1  LIG1       -0.5052
     46 H         -12.0961    9.9869   -2.4725 H       1  LIG1        0.2922
@<TRIPOS>BOND
     1    46    45    1
     2    11    12    1
     3    11     4    1
     4    45    38    1
     5     7     3    1
     6    41    37    1
     7    21    20    1
     8     4     3   ar
     9     4     5   ar
    10     3     2   ar
    11    20    13    1
    12    37    38   ar
    13    37    36   ar
    14    38    39   ar
    15    33    34    1
    16    33    27    1
    17    30    26    1
    18    13    18   ar
    19    13    14   ar
    20    18    17   ar
    21    26    27   ar
    22    26    25   ar
    23    27    28   ar
    24     5    14    1
    25     5     6   ar
    26    14    15   ar
    27     2     8    1
    28     2     1   ar
    29    17    25    1
    30    17    16   ar
    31    25    24   ar
    32    28    36    1
    33    28    29   ar
    34    36    35   ar
    35    39    42    1
    36    39    40   ar
    37    29    24   ar
    38    24    31    1
    39    15    16   ar
    40    15    19    1
    41    16    22    1
    42    31    32    1
    43     6     1   ar
    44     1     9    1
    45    22    23    1
    46    35    40   ar
    47    35    43    1
    48    10     9    1
    49    43    44    1
