@<TRIPOS>MOLECULE
mol_data/opt/m06hf/geoms/mol2/6ff6ff-6ff.out
 35 37 0 0 0
SMALL
GASTEIGER

@<TRIPOS>ATOM
      1 C          -4.3591   -1.9953   -0.7349 C.ar    1  LIG1        0.2130
      2 C          -3.1226   -2.2280   -0.1110 C.ar    1  LIG1        0.0033
      3 C          -2.5531   -1.1871    0.5893 C.ar    1  LIG1       -0.0130
      4 C          -3.1994    0.0531    0.6645 C.ar    1  LIG1        0.1431
      5 C          -4.4185    0.1834   -0.0063 C.ar    1  LIG1        0.1212
      6 N          -4.9696   -0.8378   -0.6787 N.ar    1  LIG1       -0.2092
      7 H          -1.6089   -1.2953    1.1061 H       1  LIG1        0.0656
      8 H          -2.6381   -3.1939   -0.1747 H       1  LIG1        0.0672
      9 O          -5.0081   -2.9589   -1.4342 O.3     1  LIG1       -0.4924
     10 H          -4.4967   -3.7742   -1.4435 H       1  LIG1        0.2937
     11 O          -2.6309    1.0091    1.4349 O.3     1  LIG1       -0.5046
     12 H          -2.7727    1.8887    1.0380 H       1  LIG1        0.2922
     13 C          -4.8174    2.7351    0.0246 C.ar    1  LIG1        0.2226
     14 C          -5.2691    1.4106    0.0242 C.ar    1  LIG1        0.0689
     15 C          -6.6503    1.2570   -0.0105 C.ar    1  LIG1       -0.0036
     16 C          -7.4850    2.3647    0.0010 C.ar    1  LIG1        0.1438
     17 C          -6.9294    3.6455    0.0638 C.ar    1  LIG1        0.1213
     18 N          -5.6018    3.7872    0.0529 N.ar    1  LIG1       -0.2086
     19 H          -7.0494    0.2503   -0.0719 H       1  LIG1        0.0663
     20 O          -3.4778    2.9921   -0.0341 O.3     1  LIG1       -0.4919
     21 H          -3.3649    3.9538   -0.0266 H       1  LIG1        0.2937
     22 O          -8.8494    2.2484   -0.0623 O.3     1  LIG1       -0.5046
     23 H          -9.1180    1.3420   -0.2506 H       1  LIG1        0.2922
     24 C          -8.8703    5.1039    0.8861 C.ar    1  LIG1        0.2220
     25 C          -7.7285    4.9036    0.0782 C.ar    1  LIG1        0.0688
     26 C          -7.2700    5.9711   -0.6839 C.ar    1  LIG1       -0.0043
     27 C          -7.9437    7.1842   -0.6375 C.ar    1  LIG1        0.1357
     28 C          -9.0520    7.2795    0.1965 C.ar    1  LIG1        0.0728
     29 N          -9.4954    6.2660    0.9315 N.ar    1  LIG1       -0.2172
     30 H          -6.3871    5.8649   -1.3001 H       1  LIG1        0.0663
     31 H          -9.6031    8.2126    0.2752 H       1  LIG1        0.0868
     32 O          -9.3503    4.1482    1.7094 O.3     1  LIG1       -0.4919
     33 H          -9.3595    3.2926    1.2503 H       1  LIG1        0.2937
     34 O          -7.4878    8.2164   -1.4018 O.3     1  LIG1       -0.5052
     35 H          -8.0327    8.9999   -1.2703 H       1  LIG1        0.2922
@<TRIPOS>BOND
     1    10     9    1
     2     9     1    1
     3    34    35    1
     4    34    27    1
     5    30    26    1
     6     1     6   ar
     7     1     2   ar
     8    26    27   ar
     9    26    25   ar
    10     6     5   ar
    11    27    28   ar
    12    23    22    1
    13     8     2    1
    14     2     3   ar
    15    19    15    1
    16    22    16    1
    17    20    21    1
    18    20    13    1
    19    15    16   ar
    20    15    14   ar
    21     5    14    1
    22     5     4   ar
    23    16    17   ar
    24    14    13   ar
    25    13    18   ar
    26    18    17   ar
    27    17    25    1
    28    25    24   ar
    29    28    31    1
    30    28    29   ar
    31     3     4   ar
    32     3     7    1
    33     4    11    1
    34    24    29   ar
    35    24    32    1
    36    12    11    1
    37    33    32    1
