@<TRIPOS>MOLECULE
mol_data/opt/m06hf/geoms/mol2/6ff6ff6ff-6ff.out
 46 49 0 0 0
SMALL
GASTEIGER

@<TRIPOS>ATOM
      1 C          -4.4962   -2.2369    0.2247 C.ar    1  LIG1        0.2130
      2 C          -3.0992   -2.3238    0.1630 C.ar    1  LIG1        0.0033
      3 C          -2.3859   -1.1440    0.0725 C.ar    1  LIG1       -0.0130
      4 C          -3.0569    0.0766    0.0046 C.ar    1  LIG1        0.1431
      5 C          -4.4541    0.0652   -0.0064 C.ar    1  LIG1        0.1212
      6 N          -5.1274   -1.0868    0.1394 N.ar    1  LIG1       -0.2092
      7 H          -1.3039   -1.1336    0.0641 H       1  LIG1        0.0656
      8 H          -2.5980   -3.2810    0.2143 H       1  LIG1        0.0672
      9 O          -5.2946   -3.3145    0.3768 O.3     1  LIG1       -0.4924
     10 H          -4.7756   -4.1181    0.4850 H       1  LIG1        0.2937
     11 O          -2.3072    1.2122   -0.0419 O.3     1  LIG1       -0.5046
     12 H          -2.8020    1.9517    0.3343 H       1  LIG1        0.2922
     13 C          -6.5793    1.3530    0.4490 C.ar    1  LIG1        0.2226
     14 C          -5.2753    1.2990   -0.1204 C.ar    1  LIG1        0.0689
     15 C          -4.8390    2.4289   -0.7993 C.ar    1  LIG1       -0.0036
     16 C          -5.6164    3.5883   -0.8486 C.ar    1  LIG1        0.1438
     17 C          -6.8385    3.5663   -0.1695 C.ar    1  LIG1        0.1213
     18 N          -7.2889    2.4588    0.4318 N.ar    1  LIG1       -0.2086
     19 H          -3.9045    2.4359   -1.3478 H       1  LIG1        0.0663
     20 O          -7.1461    0.2894    1.0178 O.3     1  LIG1       -0.4919
     21 H          -6.6157   -0.5076    0.7694 H       1  LIG1        0.2937
     22 O          -5.1582    4.6162   -1.6023 O.3     1  LIG1       -0.5046
     23 H          -5.3890    5.4658   -1.1833 H       1  LIG1        0.2922
     24 C          -7.4888    6.0660   -0.0940 C.ar    1  LIG1        0.2226
     25 C          -7.8054    4.7033   -0.1325 C.ar    1  LIG1        0.0689
     26 C          -9.1629    4.4099   -0.0669 C.ar    1  LIG1       -0.0036
     27 C         -10.1046    5.4265   -0.0158 C.ar    1  LIG1        0.1438
     28 C          -9.6831    6.7591   -0.0446 C.ar    1  LIG1        0.1213
     29 N          -8.3760    7.0327   -0.0620 N.ar    1  LIG1       -0.2086
     30 H          -9.4539    3.3656   -0.0316 H       1  LIG1        0.0663
     31 O          -6.1812    6.4579   -0.0604 O.3     1  LIG1       -0.4919
     32 H          -6.1702    7.4258   -0.0303 H       1  LIG1        0.2937
     33 O         -11.4472    5.1671    0.0821 O.3     1  LIG1       -0.5046
     34 H         -11.6157    4.2225    0.1781 H       1  LIG1        0.2922
     35 C         -11.7850    8.0465   -0.7556 C.ar    1  LIG1        0.2220
     36 C         -10.5991    7.9340    0.0046 C.ar    1  LIG1        0.0688
     37 C         -10.2110    9.0235    0.7755 C.ar    1  LIG1       -0.0043
     38 C         -10.9932   10.1702    0.7842 C.ar    1  LIG1        0.1357
     39 C         -12.1374   10.1811   -0.0056 C.ar    1  LIG1        0.0728
     40 N         -12.5149    9.1472   -0.7483 N.ar    1  LIG1       -0.2172
     41 H          -9.2985    8.9861    1.3553 H       1  LIG1        0.0663
     42 H         -12.7740   11.0609   -0.0403 H       1  LIG1        0.0868
     43 O         -12.2092    7.0710   -1.5847 O.3     1  LIG1       -0.4919
     44 H         -12.1015    6.2061   -1.1565 H       1  LIG1        0.2937
     45 O         -10.6035   11.2241    1.5561 O.3     1  LIG1       -0.5052
     46 H         -11.2272   11.9533    1.4704 H       1  LIG1        0.2922
@<TRIPOS>BOND
     1    22    23    1
     2    22    16    1
     3    43    44    1
     4    43    35    1
     5    19    15    1
     6    16    15   ar
     7    16    17   ar
     8    15    14   ar
     9    35    40   ar
    10    35    36   ar
    11    40    39   ar
    12    17    25    1
    13    17    18   ar
    14    25    24   ar
    15    25    26   ar
    16    14     5    1
    17    14    13   ar
    18    24    29   ar
    19    24    31    1
    20    26    30    1
    21    26    27   ar
    22    29    28   ar
    23    31    32    1
    24    28    27   ar
    25    28    36    1
    26    11     4    1
    27    11    12    1
    28    42    39    1
    29    27    33    1
    30     5     4   ar
    31     5     6   ar
    32    39    38   ar
    33     4     3   ar
    34    36    37   ar
    35     7     3    1
    36     3     2   ar
    37    33    34    1
    38     6     1   ar
    39     2     8    1
    40     2     1   ar
    41     1     9    1
    42     9    10    1
    43    18    13   ar
    44    13    20    1
    45    21    20    1
    46    37    38   ar
    47    37    41    1
    48    38    45    1
    49    46    45    1
