@<TRIPOS>MOLECULE
mol_data/opt/m06hf/geoms/mol2/6ff6ff.out
 24 25 0 0 0
SMALL
GASTEIGER

@<TRIPOS>ATOM
      1 C          -4.4909   -2.0713   -0.3055 C.ar    1  LIG1        0.2130
      2 C          -3.0997   -2.0932   -0.1427 C.ar    1  LIG1        0.0033
      3 C          -2.4684   -0.8989    0.1485 C.ar    1  LIG1       -0.0130
      4 C          -3.2073    0.2801    0.2293 C.ar    1  LIG1        0.1431
      5 C          -4.5805    0.2220   -0.0241 C.ar    1  LIG1        0.1212
      6 N          -5.1839   -0.9549   -0.2477 N.ar    1  LIG1       -0.2092
      7 H          -1.4032   -0.8500    0.3309 H       1  LIG1        0.0656
      8 H          -2.5438   -3.0183   -0.2142 H       1  LIG1        0.0672
      9 O          -5.2210   -3.1850   -0.5290 O.3     1  LIG1       -0.4924
     10 H          -4.6667   -3.9716   -0.5027 H       1  LIG1        0.2937
     11 O          -2.5447    1.4246    0.5571 O.3     1  LIG1       -0.5046
     12 H          -3.1445    2.0386    1.0007 H       1  LIG1        0.2922
     13 C          -6.8173    1.3173    0.3873 C.ar    1  LIG1        0.2220
     14 C          -5.4547    1.4253   -0.0028 C.ar    1  LIG1        0.0688
     15 C          -4.9854    2.6824   -0.3768 C.ar    1  LIG1       -0.0043
     16 C          -5.8252    3.7858   -0.2789 C.ar    1  LIG1        0.1357
     17 C          -7.1142    3.5804    0.1965 C.ar    1  LIG1        0.0728
     18 N          -7.5937    2.3798    0.5027 N.ar    1  LIG1       -0.2172
     19 H          -3.9843    2.8206   -0.7672 H       1  LIG1        0.0663
     20 H          -7.7950    4.4180    0.3191 H       1  LIG1        0.0868
     21 O          -7.3803    0.1400    0.6613 O.3     1  LIG1       -0.4919
     22 H          -6.7973   -0.5704    0.3066 H       1  LIG1        0.2937
     23 O          -5.3380    5.0081   -0.6393 O.3     1  LIG1       -0.5052
     24 H          -6.0365    5.6705   -0.6147 H       1  LIG1        0.2922
@<TRIPOS>BOND
     1    19    15    1
     2    23    24    1
     3    23    16    1
     4     9    10    1
     5     9     1    1
     6    15    16   ar
     7    15    14   ar
     8     1     6   ar
     9     1     2   ar
    10    16    17   ar
    11     6     5   ar
    12     8     2    1
    13     2     3   ar
    14     5    14    1
    15     5     4   ar
    16    14    13   ar
    17     3     4   ar
    18     3     7    1
    19    17    20    1
    20    17    18   ar
    21     4    11    1
    22    22    21    1
    23    13    18   ar
    24    13    21    1
    25    11    12    1
