@<TRIPOS>MOLECULE
mol_data/opt/m06hf/geoms/mol2/6fg.out
 13 13 0 0 0
SMALL
GASTEIGER

@<TRIPOS>ATOM
      1 C          -4.5805   -2.0682    0.0001 C.ar    1  LIG1        0.2123
      2 C          -3.1797   -2.0569    0.0000 C.ar    1  LIG1        0.0009
      3 C          -2.5359   -0.8318   -0.0002 C.ar    1  LIG1       -0.0421
      4 C          -3.2924    0.3412   -0.0003 C.ar    1  LIG1        0.0231
      5 C          -4.6785    0.2069   -0.0002 C.ar    1  LIG1        0.0445
      6 N          -5.3047   -0.9662   -0.0000 N.ar    1  LIG1       -0.2204
      7 H          -1.4539   -0.7871   -0.0002 H       1  LIG1        0.0631
      8 H          -2.6153   -2.9803    0.0001 H       1  LIG1        0.0671
      9 H          -5.3180    1.0824   -0.0003 H       1  LIG1        0.0842
     10 O          -5.2895   -3.2194    0.0003 O.3     1  LIG1       -0.4924
     11 H          -4.7019   -3.9812    0.0003 H       1  LIG1        0.2937
     12 S          -2.4575    1.9114   -0.0005 S.3     1  LIG1       -0.1411
     13 H          -3.5670    2.6575   -0.0004 H       1  LIG1        0.1072
@<TRIPOS>BOND
     1    12    13    1
     2    12     4    1
     3     4     5   ar
     4     4     3   ar
     5     9     5    1
     6     7     3    1
     7     5     6   ar
     8     3     2   ar
     9     6     1   ar
    10     2     1   ar
    11     2     8    1
    12     1    10    1
    13    10    11    1
