@<TRIPOS>MOLECULE
mol_data/opt/m06hf/geoms/mol2/6fh13ah6de-13dh.out
 47 50 0 0 0
SMALL
GASTEIGER

@<TRIPOS>ATOM
      1 C          -4.4097   -1.9823    0.7043 C.ar    1  LIG1        0.2129
      2 C          -3.0391   -2.1177    0.4509 C.ar    1  LIG1        0.0016
      3 C          -2.3623   -1.0252   -0.0621 C.ar    1  LIG1       -0.0339
      4 C          -3.0316    0.1792   -0.2927 C.ar    1  LIG1        0.0526
      5 C          -4.3896    0.2143    0.0475 C.ar    1  LIG1        0.1115
      6 N          -5.0497   -0.8523    0.5067 N.ar    1  LIG1       -0.2097
      7 H          -1.3069   -1.1031   -0.2947 H       1  LIG1        0.0638
      8 H          -2.5263   -3.0523    0.6367 H       1  LIG1        0.0671
      9 O          -5.1671   -2.9995    1.1795 O.3     1  LIG1       -0.4924
     10 H          -4.6395   -3.7974    1.2842 H       1  LIG1        0.2937
     11 N          -2.3848    1.3074   -0.8174 N.pl3   1  LIG1       -0.3563
     12 H          -1.4761    1.1001   -1.2108 H       1  LIG1        0.1424
     13 H          -2.9623    1.8121   -1.4821 H       1  LIG1        0.1424
     14 C          -5.2144    1.4274   -0.1029 C.ar    1  LIG1        0.0691
     15 C          -4.9224    2.7811   -0.2210 C.ar    1  LIG1       -0.0135
     16 C          -6.1593    3.4634   -0.2631 C.ar    1  LIG1        0.0509
     17 C          -7.1692    2.5086   -0.1742 C.ar    1  LIG1        0.0707
     18 N          -6.5587    1.2876   -0.0900 N.ar    1  LIG1       -0.3514
     19 H          -6.9890    0.3763    0.0253 H       1  LIG1        0.1660
     20 H          -3.9416    3.2265   -0.2096 H       1  LIG1        0.0658
     21 N          -6.3655    4.8619   -0.3507 N.pl3   1  LIG1       -0.3563
     22 H          -5.4940    5.3699   -0.2586 H       1  LIG1        0.1424
     23 H          -6.8162    5.1289   -1.2214 H       1  LIG1        0.1424
     24 C          -9.5834    1.7771   -0.4937 C.ar    1  LIG1        0.1500
     25 C          -8.6171    2.7246   -0.1265 C.ar    1  LIG1        0.0371
     26 C          -9.1241    3.9411    0.3521 C.ar    1  LIG1       -0.0323
     27 C         -10.4936    4.1688    0.4176 C.ar    1  LIG1        0.0528
     28 C         -11.3658    3.1562   -0.0364 C.ar    1  LIG1        0.1052
     29 N         -10.8941    1.9855   -0.4491 N.ar    1  LIG1       -0.2329
     30 H          -8.4311    4.7013    0.6906 H       1  LIG1        0.0638
     31 N          -8.8817   -0.5791   -1.3560 N.1     1  LIG1       -0.1893
     32 C          -9.1971    0.4585   -0.9808 C.1     1  LIG1        0.1198
     33 C         -10.9746    5.3861    1.0110 C.1     1  LIG1       -0.0674
     34 C         -11.3499    6.4043    1.5251 C.1     1  LIG1       -0.1138
     35 H         -11.7180    7.3092    1.9521 H       1  LIG1        0.1232
     36 C         -12.8390    3.2436   -0.0448 C.ar    1  LIG1        0.0856
     37 C         -13.7819    4.2609   -0.1839 C.ar    1  LIG1        0.0991
     38 C         -15.0763    3.6587   -0.1614 C.ar    1  LIG1        0.0604
     39 C         -14.8774    2.3046   -0.0146 C.ar    1  LIG1        0.0243
     40 N         -13.5308    2.0870    0.0370 N.ar    1  LIG1       -0.3568
     41 H         -13.0565    1.1951    0.0831 H       1  LIG1        0.1655
     42 H         -15.5893    1.5029    0.0658 H       1  LIG1        0.0826
     43 N         -13.6199    6.7763   -0.7117 N.1     1  LIG1       -0.1907
     44 C         -13.6195    5.6546   -0.4592 C.1     1  LIG1        0.1032
     45 N         -16.2973    4.3423   -0.2382 N.pl3   1  LIG1       -0.3558
     46 H         -16.1720    5.3305   -0.4249 H       1  LIG1        0.1424
     47 H         -16.9391    3.9360   -0.9072 H       1  LIG1        0.1424
@<TRIPOS>BOND
     1    13    11    1
     2    31    32    3
     3    23    21    1
     4    12    11    1
     5    32    24    1
     6    47    45    1
     7    11     4    1
     8    43    44    3
     9    24    29   ar
    10    24    25   ar
    11    44    37    1
    12    29    28   ar
    13    46    45    1
    14    21    16    1
    15    21    22    1
    16     7     3    1
    17     4     3   ar
    18     4     5   ar
    19    16    15   ar
    20    16    17   ar
    21    45    38    1
    22    15    20    1
    23    15    14   ar
    24    37    38   ar
    25    37    36   ar
    26    17    25    1
    27    17    18   ar
    28    38    39   ar
    29    25    26   ar
    30    14    18   ar
    31    14     5    1
    32    18    19    1
    33     3     2   ar
    34    36    28    1
    35    36    40   ar
    36    28    27   ar
    37    39    40   ar
    38    39    42    1
    39    40    41    1
    40     5     6   ar
    41    26    27   ar
    42    26    30    1
    43    27    33    1
    44     2     8    1
    45     2     1   ar
    46     6     1   ar
    47     1     9    1
    48    33    34    3
    49     9    10    1
    50    34    35    1
