@<TRIPOS>MOLECULE
mol_data/opt/m06hf/geoms/mol2/6fh13dl-6fe12ae.out
 48 51 0 0 0
SMALL
GASTEIGER

@<TRIPOS>ATOM
      1 C          -4.7047   -2.0109   -0.9342 C.ar    1  LIG1        0.2129
      2 C          -3.3754   -2.3399   -0.6287 C.ar    1  LIG1        0.0016
      3 C          -2.5517   -1.3314   -0.1799 C.ar    1  LIG1       -0.0339
      4 C          -3.0194   -0.0131   -0.0282 C.ar    1  LIG1        0.0526
      5 C          -4.3557    0.2012   -0.3903 C.ar    1  LIG1        0.1128
      6 N          -5.1554   -0.7875   -0.8187 N.ar    1  LIG1       -0.2096
      7 H          -1.5218   -1.5511    0.0742 H       1  LIG1        0.0638
      8 H          -3.0086   -3.3517   -0.7399 H       1  LIG1        0.0671
      9 O          -5.6057   -2.9262   -1.3614 O.3     1  LIG1       -0.4924
     10 H          -5.2112   -3.8031   -1.3976 H       1  LIG1        0.2937
     11 N          -2.2058    0.9557    0.5470 N.pl3   1  LIG1       -0.3563
     12 H          -1.2731    0.6320    0.7617 H       1  LIG1        0.1424
     13 H          -2.1882    1.8708    0.1192 H       1  LIG1        0.1424
     14 C          -5.0882    1.4858   -0.2661 C.ar    1  LIG1        0.0886
     15 C          -4.7756    2.8426   -0.2532 C.ar    1  LIG1        0.1207
     16 C          -6.0037    3.5605   -0.1533 C.ar    1  LIG1        0.1634
     17 C          -7.0245    2.6395   -0.1021 C.ar    1  LIG1        0.0957
     18 N          -6.4376    1.3999   -0.1738 N.ar    1  LIG1       -0.3488
     19 H          -6.8999    0.5076   -0.3323 H       1  LIG1        0.1661
     20 N          -2.4995    4.0065   -0.5915 N.1     1  LIG1       -0.1907
     21 C          -3.5129    3.4848   -0.4382 C.1     1  LIG1        0.1050
     22 O          -6.1423    4.9091   -0.1414 O.3     1  LIG1       -0.4917
     23 C          -5.9264    5.5019    1.1439 C.3     1  LIG1        0.0789
     24 H          -6.0632    6.5710    1.0098 H       1  LIG1        0.0660
     25 H          -6.6549    5.1112    1.8564 H       1  LIG1        0.0660
     26 H          -4.9123    5.2930    1.4871 H       1  LIG1        0.0660
     27 C          -9.3137    2.0117    0.7388 C.ar    1  LIG1        0.2225
     28 C          -8.4730    2.8656   -0.0062 C.ar    1  LIG1        0.0645
     29 C          -9.0711    3.9523   -0.6241 C.ar    1  LIG1       -0.0298
     30 C         -10.4527    4.1442   -0.5299 C.ar    1  LIG1        0.0545
     31 C         -11.1961    3.1899    0.1846 C.ar    1  LIG1        0.1251
     32 N         -10.6156    2.1627    0.8060 N.ar    1  LIG1       -0.2081
     33 H          -8.4637    4.6556   -1.1787 H       1  LIG1        0.0639
     34 O          -8.8134    0.9590    1.4211 O.3     1  LIG1       -0.4919
     35 H          -7.8738    1.0895    1.6013 H       1  LIG1        0.2937
     36 C         -11.0323    5.3004   -1.1629 C.1     1  LIG1       -0.0674
     37 C         -11.4513    6.2865   -1.7080 C.1     1  LIG1       -0.1138
     38 H         -11.8270    7.1622   -2.1850 H       1  LIG1        0.1232
     39 C         -12.6624    3.2554    0.3124 C.ar    1  LIG1        0.1554
     40 C         -13.6429    3.9288   -0.3505 C.ar    1  LIG1        0.0011
     41 C         -14.8810    3.5099    0.2489 C.ar    1  LIG1        0.0630
     42 C         -14.5361    2.6207    1.2230 C.ar    1  LIG1        0.1080
     43 O         -13.2120    2.4649    1.2636 O.2     1  LIG1       -0.4601
     44 H         -15.1210    2.0560    1.9275 H       1  LIG1        0.1042
     45 H         -13.5233    4.6210   -1.1632 H       1  LIG1        0.0668
     46 C         -16.2085    3.9243   -0.1002 C.1     1  LIG1       -0.0665
     47 C         -17.3186    4.2718   -0.4002 C.1     1  LIG1       -0.1138
     48 H         -18.3036    4.5762   -0.6688 H       1  LIG1        0.1232
@<TRIPOS>BOND
     1    38    37    1
     2    37    36    3
     3    10     9    1
     4     9     1    1
     5    33    29    1
     6    45    40    1
     7    36    30    1
     8     1     6   ar
     9     1     2   ar
    10     6     5   ar
    11     8     2    1
    12    48    47    1
    13     2     3   ar
    14    29    30   ar
    15    29    28   ar
    16    20    21    3
    17    30    31   ar
    18    21    15    1
    19    47    46    3
    20     5    14    1
    21     5     4   ar
    22    40    41   ar
    23    40    39   ar
    24    19    18    1
    25    14    15   ar
    26    14    18   ar
    27    15    16   ar
    28     3     4   ar
    29     3     7    1
    30    18    17   ar
    31    16    22    1
    32    16    17   ar
    33    22    23    1
    34    17    28    1
    35    46    41    1
    36     4    11    1
    37    28    27   ar
    38    13    11    1
    39    31    39    1
    40    31    32   ar
    41    41    42   ar
    42    39    43   ar
    43    11    12    1
    44    27    32   ar
    45    27    34    1
    46    24    23    1
    47    23    26    1
    48    23    25    1
    49    42    43   ar
    50    42    44    1
    51    34    35    1
