@<TRIPOS>MOLECULE
mol_data/opt/m06hf/geoms/mol2/6fh4ei4id-12le.out
 56 59 0 0 0
SMALL
GASTEIGER

@<TRIPOS>ATOM
      1 C          -3.5129   -1.5528    1.6025 C.ar    1  LIG1        0.2129
      2 C          -2.8087   -2.2260    0.5958 C.ar    1  LIG1        0.0016
      3 C          -2.8643   -1.7150   -0.6855 C.ar    1  LIG1       -0.0339
      4 C          -3.6075   -0.5589   -0.9596 C.ar    1  LIG1        0.0512
      5 C          -4.2475    0.0445    0.1320 C.ar    1  LIG1        0.0965
      6 N          -4.2031   -0.4615    1.3684 N.ar    1  LIG1       -0.2111
      7 H          -2.3320   -2.2028   -1.4932 H       1  LIG1        0.0638
      8 H          -2.2400   -3.1208    0.8147 H       1  LIG1        0.0671
      9 O          -3.5370   -1.9906    2.8883 O.3     1  LIG1       -0.4924
     10 H          -2.9961   -2.7808    2.9840 H       1  LIG1        0.2937
     11 N          -3.6658   -0.0639   -2.2649 N.pl3   1  LIG1       -0.3563
     12 H          -3.7789   -0.7815   -2.9683 H       1  LIG1        0.1424
     13 H          -4.3176    0.6989   -2.3959 H       1  LIG1        0.1424
     14 C          -4.6356    2.4719   -0.5402 C.ar    1  LIG1        0.0345
     15 C          -5.5033    3.5688   -0.6273 C.ar    1  LIG1       -0.0377
     16 C          -5.1083    1.2602   -0.0184 C.ar    1  LIG1        0.0179
     17 C          -6.8181    3.4735   -0.1916 C.ar    1  LIG1       -0.0135
     18 H          -5.1313    4.5043   -1.0256 H       1  LIG1        0.0636
     19 C          -6.4280    1.1868    0.4319 C.ar    1  LIG1       -0.0478
     20 C          -7.2975    2.2695    0.3526 C.ar    1  LIG1       -0.0420
     21 H          -6.7645    0.2533    0.8669 H       1  LIG1        0.0627
     22 C          -3.2586    2.6368   -0.9434 C.1     1  LIG1       -0.0690
     23 C          -2.1159    2.7960   -1.2784 C.1     1  LIG1       -0.1139
     24 H          -1.1008    2.9193   -1.5764 H       1  LIG1        0.1232
     25 C          -8.7294    2.1569    0.8414 C.3     1  LIG1       -0.0391
     26 H          -8.8859    1.1946    1.3263 H       1  LIG1        0.0278
     27 H          -9.4249    2.2499    0.0052 H       1  LIG1        0.0278
     28 H          -8.9563    2.9545    1.5514 H       1  LIG1        0.0278
     29 C          -7.7356    5.6112    0.7753 C.ar    1  LIG1       -0.0420
     30 C          -8.6025    6.6966    0.6911 C.ar    1  LIG1       -0.0462
     31 C          -7.7159    4.6715   -0.2689 C.ar    1  LIG1       -0.0134
     32 C          -9.4468    6.8819   -0.4087 C.ar    1  LIG1        0.0386
     33 H          -8.6387    7.4223    1.4939 H       1  LIG1        0.0628
     34 C          -8.5457    4.8459   -1.3693 C.ar    1  LIG1       -0.0357
     35 C          -9.4041    5.9450   -1.4503 C.ar    1  LIG1        0.0631
     36 H          -8.5272    4.1289   -2.1802 H       1  LIG1        0.0637
     37 C          -6.8289    5.4405    1.9791 C.3     1  LIG1       -0.0391
     38 H          -7.0793    6.1705    2.7471 H       1  LIG1        0.0278
     39 H          -5.7866    5.5761    1.6851 H       1  LIG1        0.0278
     40 H          -6.9263    4.4345    2.3911 H       1  LIG1        0.0278
     41 N         -10.7893    6.1188   -3.6390 N.1     1  LIG1       -0.1908
     42 C         -10.2013    6.0722   -2.6547 C.1     1  LIG1        0.0999
     43 C         -10.3350    8.0490   -0.4265 C.ar    1  LIG1        0.1787
     44 C         -10.2834    9.2366    0.2400 C.ar    1  LIG1        0.1810
     45 C         -11.4312   10.0022   -0.1864 C.ar    1  LIG1        0.1046
     46 C         -12.0843    9.1975   -1.0688 C.ar    1  LIG1        0.1116
     47 O         -11.4399    8.0338   -1.2095 O.2     1  LIG1       -0.4578
     48 H         -12.9875    9.3299   -1.6373 H       1  LIG1        0.1043
     49 O          -9.3427    9.6273    1.1334 O.3     1  LIG1       -0.4902
     50 C          -8.4533   10.6259    0.6207 C.3     1  LIG1        0.0790
     51 H          -7.7754   10.8723    1.4331 H       1  LIG1        0.0660
     52 H          -7.9005   10.2209   -0.2285 H       1  LIG1        0.0660
     53 H          -9.0182   11.5083    0.3191 H       1  LIG1        0.0660
     54 C         -11.7947   11.3168    0.2479 C.1     1  LIG1       -0.0628
     55 C         -12.0788   12.4233    0.6193 C.1     1  LIG1       -0.1137
     56 H         -12.3395   13.4013    0.9523 H       1  LIG1        0.1232
@<TRIPOS>BOND
     1    41    42    3
     2    12    11    1
     3    42    35    1
     4    13    11    1
     5    11     4    1
     6    36    34    1
     7    48    46    1
     8    24    23    1
     9     7     3    1
    10    35    34   ar
    11    35    32   ar
    12    34    31   ar
    13    23    22    3
    14    47    46   ar
    15    47    43   ar
    16    46    45   ar
    17    18    15    1
    18     4     3   ar
    19     4     5   ar
    20    22    14    1
    21     3     2   ar
    22    15    14   ar
    23    15    17   ar
    24    14    16   ar
    25    43    32    1
    26    43    44   ar
    27    32    30   ar
    28    31    17    1
    29    31    29   ar
    30    52    50    1
    31    17    20   ar
    32    45    44   ar
    33    45    54    1
    34    16     5    1
    35    16    19   ar
    36    27    25    1
    37     5     6   ar
    38    44    49    1
    39    54    55    3
    40    53    50    1
    41    20    19   ar
    42    20    25    1
    43    19    21    1
    44     2     8    1
    45     2     1   ar
    46    55    56    1
    47    50    49    1
    48    50    51    1
    49    30    29   ar
    50    30    33    1
    51    29    37    1
    52    25    26    1
    53    25    28    1
    54     6     1   ar
    55     1     9    1
    56    39    37    1
    57    37    40    1
    58    37    38    1
    59     9    10    1
