@<TRIPOS>MOLECULE
mol_data/opt/m06hf/geoms/mol2/6fh6fh-4fh6fh.out
 51 54 0 0 0
SMALL
GASTEIGER

@<TRIPOS>ATOM
      1 C          -3.9106   -1.7614   -1.4004 C.ar    1  LIG1        0.2129
      2 C          -3.0802   -2.3025   -0.4126 C.ar    1  LIG1        0.0016
      3 C          -2.9159   -1.5821    0.7538 C.ar    1  LIG1       -0.0339
      4 C          -3.5613   -0.3510    0.9407 C.ar    1  LIG1        0.0513
      5 C          -4.3470    0.1053   -0.1319 C.ar    1  LIG1        0.1005
      6 N          -4.5092   -0.6037   -1.2546 N.ar    1  LIG1       -0.2110
      7 H          -2.2904   -1.9750    1.5469 H       1  LIG1        0.0638
      8 H          -2.5865   -3.2555   -0.5542 H       1  LIG1        0.0671
      9 O          -4.1595   -2.4015   -2.5739 O.3     1  LIG1       -0.4924
     10 H          -3.6699   -3.2289   -2.6135 H       1  LIG1        0.2937
     11 N          -3.4907    0.3153    2.1631 N.pl3   1  LIG1       -0.3563
     12 H          -2.8077   -0.0803    2.7948 H       1  LIG1        0.1424
     13 H          -3.3844    1.3208    2.0757 H       1  LIG1        0.1424
     14 C          -4.7002    2.6110    0.3590 C.ar    1  LIG1        0.2224
     15 C          -5.1519    1.3642   -0.0942 C.ar    1  LIG1        0.0654
     16 C          -6.4351    1.3419   -0.6226 C.ar    1  LIG1       -0.0246
     17 C          -7.2300    2.4895   -0.6540 C.ar    1  LIG1        0.0519
     18 C          -6.6781    3.6624   -0.1233 C.ar    1  LIG1        0.0989
     19 N          -5.4347    3.6984    0.3559 N.ar    1  LIG1       -0.2105
     20 H          -6.8001    0.4078   -1.0329 H       1  LIG1        0.0645
     21 O          -3.4225    2.7521    0.8147 O.3     1  LIG1       -0.4919
     22 H          -3.3096    3.6927    1.0115 H       1  LIG1        0.2937
     23 N          -8.5399    2.4512   -1.1581 N.pl3   1  LIG1       -0.3563
     24 H          -8.8387    3.3338   -1.5564 H       1  LIG1        0.1424
     25 H          -8.6923    1.6865   -1.8032 H       1  LIG1        0.1424
     26 C          -6.9730    6.1224   -0.6018 C.ar    1  LIG1        0.1268
     27 C          -7.7277    7.2871   -0.5034 C.ar    1  LIG1       -0.0099
     28 C          -7.4707    4.9274   -0.0688 C.ar    1  LIG1        0.0454
     29 C          -8.9776    7.3003    0.1194 C.ar    1  LIG1        0.0114
     30 H          -7.3259    8.2200   -0.8839 H       1  LIG1        0.0661
     31 C          -8.7284    4.9344    0.5309 C.ar    1  LIG1       -0.0277
     32 C          -9.4842    6.0989    0.6282 C.ar    1  LIG1        0.0334
     33 H          -9.1204    4.0009    0.9206 H       1  LIG1        0.0644
     34 O          -5.7618    6.0992   -1.2144 O.3     1  LIG1       -0.5061
     35 H          -5.5167    6.9816   -1.5113 H       1  LIG1        0.2922
     36 N         -10.7476    6.1038    1.2891 N.pl3   1  LIG1       -0.3575
     37 H         -11.4878    6.4846    0.7035 H       1  LIG1        0.1423
     38 H         -11.0146    5.1878    1.6317 H       1  LIG1        0.1423
     39 C         -10.2750    9.0790    1.4061 C.ar    1  LIG1        0.2204
     40 C          -9.7329    8.5859    0.1975 C.ar    1  LIG1        0.0471
     41 C          -9.8402    9.3866   -0.9381 C.ar    1  LIG1       -0.0267
     42 C         -10.4399   10.6414   -0.8671 C.ar    1  LIG1        0.0437
     43 C         -10.9046   11.0363    0.3894 C.ar    1  LIG1        0.0520
     44 N         -10.8347   10.2774    1.4746 N.ar    1  LIG1       -0.2191
     45 H          -9.4469    9.0247   -1.8823 H       1  LIG1        0.0644
     46 H         -11.3592   12.0144    0.5142 H       1  LIG1        0.0849
     47 O         -10.2227    8.3772    2.5505 O.3     1  LIG1       -0.4920
     48 H         -10.4088    7.4249    2.3450 H       1  LIG1        0.2937
     49 N         -10.5188   11.4938   -1.9798 N.pl3   1  LIG1       -0.3568
     50 H         -10.5732   11.0087   -2.8652 H       1  LIG1        0.1424
     51 H         -11.2480   12.1911   -1.9063 H       1  LIG1        0.1424
@<TRIPOS>BOND
     1    50    49    1
     2    10     9    1
     3     9     1    1
     4    49    51    1
     5    49    42    1
     6    45    41    1
     7    25    23    1
     8    24    23    1
     9    35    34    1
    10     1     6   ar
    11     1     2   ar
    12     6     5   ar
    13    34    26    1
    14    23    17    1
    15    20    16    1
    16    41    42   ar
    17    41    40   ar
    18    30    27    1
    19    42    43   ar
    20    17    16   ar
    21    17    18   ar
    22    16    15   ar
    23    26    27   ar
    24    26    28   ar
    25     8     2    1
    26    27    29   ar
    27     2     3   ar
    28     5    15    1
    29     5     4   ar
    30    18    28    1
    31    18    19   ar
    32    15    14   ar
    33    28    31   ar
    34    29    40    1
    35    29    32   ar
    36    40    39   ar
    37    19    14   ar
    38    14    21    1
    39    43    46    1
    40    43    44   ar
    41    31    32   ar
    42    31    33    1
    43    32    36    1
    44    37    36    1
    45     3     4   ar
    46     3     7    1
    47    21    22    1
    48     4    11    1
    49    36    38    1
    50    39    44   ar
    51    39    47    1
    52    13    11    1
    53    11    12    1
    54    48    47    1
