@<TRIPOS>MOLECULE
mol_data/opt/m06hf/geoms/mol2/6fh6fh-6fh.out
 38 40 0 0 0
SMALL
GASTEIGER

@<TRIPOS>ATOM
      1 C          -4.5044   -2.0766    0.4449 C.ar    1  LIG1        0.2129
      2 C          -3.1596   -2.2311    0.0879 C.ar    1  LIG1        0.0016
      3 C          -2.4636   -1.1039   -0.3017 C.ar    1  LIG1       -0.0339
      4 C          -3.0851    0.1529   -0.3380 C.ar    1  LIG1        0.0513
      5 C          -4.4299    0.1887    0.0675 C.ar    1  LIG1        0.1005
      6 N          -5.1012   -0.9083    0.4322 N.ar    1  LIG1       -0.2110
      7 H          -1.4242   -1.1871   -0.5971 H       1  LIG1        0.0638
      8 H          -2.6809   -3.2017    0.1116 H       1  LIG1        0.0671
      9 O          -5.2845   -3.1227    0.8206 O.3     1  LIG1       -0.4924
     10 H          -4.7745   -3.9388    0.8257 H       1  LIG1        0.2937
     11 N          -2.4199    1.2694   -0.8458 N.pl3   1  LIG1       -0.3563
     12 H          -1.4390    1.1020   -1.0238 H       1  LIG1        0.1424
     13 H          -2.5639    2.1139   -0.3021 H       1  LIG1        0.1424
     14 C          -4.9048    2.6880    0.5076 C.ar    1  LIG1        0.2224
     15 C          -5.2736    1.4208    0.0350 C.ar    1  LIG1        0.0654
     16 C          -6.5711    1.3210   -0.4484 C.ar    1  LIG1       -0.0246
     17 C          -7.4187    2.4247   -0.4751 C.ar    1  LIG1        0.0519
     18 C          -6.9470    3.6395    0.0347 C.ar    1  LIG1        0.1005
     19 N          -5.6943    3.7386    0.4912 N.ar    1  LIG1       -0.2104
     20 H          -6.9090    0.3544   -0.8039 H       1  LIG1        0.0645
     21 O          -3.6770    2.8743    1.0590 O.3     1  LIG1       -0.4919
     22 H          -3.6606    3.7800    1.3991 H       1  LIG1        0.2937
     23 N          -8.7454    2.3371   -0.9845 N.pl3   1  LIG1       -0.3563
     24 H          -8.9029    2.9808   -1.7573 H       1  LIG1        0.1424
     25 H          -8.9927    1.3940   -1.2641 H       1  LIG1        0.1424
     26 C          -9.0983    4.9571    0.4959 C.ar    1  LIG1        0.2219
     27 C          -7.7524    4.8949    0.0710 C.ar    1  LIG1        0.0653
     28 C          -7.1035    6.0900   -0.2353 C.ar    1  LIG1       -0.0252
     29 C          -7.7762    7.3023   -0.1412 C.ar    1  LIG1        0.0438
     30 C          -9.1043    7.2424    0.2924 C.ar    1  LIG1        0.0520
     31 N          -9.7346    6.1172    0.5916 N.ar    1  LIG1       -0.2191
     32 H          -6.0598    6.0556   -0.5255 H       1  LIG1        0.0645
     33 H          -9.6763    8.1586    0.4041 H       1  LIG1        0.0849
     34 O          -9.7960    3.8735    0.8702 O.3     1  LIG1       -0.4919
     35 H          -9.5485    3.1094    0.2869 H       1  LIG1        0.2937
     36 N          -7.1482    8.5315   -0.3996 N.pl3   1  LIG1       -0.3568
     37 H          -6.3780    8.4673   -1.0515 H       1  LIG1        0.1424
     38 H          -7.7885    9.2664   -0.6695 H       1  LIG1        0.1424
@<TRIPOS>BOND
     1    24    23    1
     2    25    23    1
     3    37    36    1
     4    12    11    1
     5    23    17    1
     6    11     4    1
     7    11    13    1
     8    20    16    1
     9    38    36    1
    10     7     3    1
    11    32    28    1
    12    17    16   ar
    13    17    18   ar
    14    16    15   ar
    15    36    29    1
    16     4     3   ar
    17     4     5   ar
    18     3     2   ar
    19    28    29   ar
    20    28    27   ar
    21    29    30   ar
    22    18    27    1
    23    18    19   ar
    24    15     5    1
    25    15    14   ar
    26     5     6   ar
    27    27    26   ar
    28     2     8    1
    29     2     1   ar
    30    35    34    1
    31    30    33    1
    32    30    31   ar
    33     6     1   ar
    34     1     9    1
    35    19    14   ar
    36    26    31   ar
    37    26    34    1
    38    14    21    1
    39     9    10    1
    40    21    22    1
