@<TRIPOS>MOLECULE
mol_data/opt/m06hf/geoms/mol2/6fh6fh-6fh-6fh-.out
 50 53 0 0 0
SMALL
GASTEIGER

@<TRIPOS>ATOM
      1 C          -3.7473   -1.7285   -1.2313 C.ar    1  LIG1        0.2129
      2 C          -2.9805   -2.2379   -0.1777 C.ar    1  LIG1        0.0016
      3 C          -2.9116   -1.4951    0.9846 C.ar    1  LIG1       -0.0339
      4 C          -3.5923   -0.2753    1.1035 C.ar    1  LIG1        0.0513
      5 C          -4.3136    0.1446   -0.0272 C.ar    1  LIG1        0.1005
      6 N          -4.3817   -0.5833   -1.1465 N.ar    1  LIG1       -0.2110
      7 H          -2.3358   -1.8621    1.8264 H       1  LIG1        0.0638
      8 H          -2.4599   -3.1827   -0.2679 H       1  LIG1        0.0671
      9 O          -3.8929   -2.3891   -2.4109 O.3     1  LIG1       -0.4924
     10 H          -3.3802   -3.2033   -2.4033 H       1  LIG1        0.2937
     11 N          -3.6188    0.4161    2.3142 N.pl3   1  LIG1       -0.3563
     12 H          -2.9779    0.0422    3.0007 H       1  LIG1        0.1424
     13 H          -3.5172    1.4207    2.2125 H       1  LIG1        0.1424
     14 C          -4.7491    2.6491    0.3891 C.ar    1  LIG1        0.2224
     15 C          -5.1492    1.3832   -0.0596 C.ar    1  LIG1        0.0654
     16 C          -6.4025    1.3182   -0.6524 C.ar    1  LIG1       -0.0246
     17 C          -7.2196    2.4464   -0.7522 C.ar    1  LIG1        0.0519
     18 C          -6.7201    3.6428   -0.2224 C.ar    1  LIG1        0.1005
     19 N          -5.5052    3.7193    0.3206 N.ar    1  LIG1       -0.2104
     20 H          -6.7250    0.3670   -1.0591 H       1  LIG1        0.0645
     21 O          -3.5023    2.8278    0.9117 O.3     1  LIG1       -0.4919
     22 H          -3.4104    3.7782    1.0686 H       1  LIG1        0.2937
     23 N          -8.5001    2.3697   -1.3229 N.pl3   1  LIG1       -0.3563
     24 H          -8.7894    3.2343   -1.7660 H       1  LIG1        0.1424
     25 H          -8.6024    1.5857   -1.9548 H       1  LIG1        0.1424
     26 C          -7.0340    6.0947   -0.7732 C.ar    1  LIG1        0.2224
     27 C          -7.5351    4.8911   -0.2452 C.ar    1  LIG1        0.0654
     28 C          -8.8245    4.9161    0.2635 C.ar    1  LIG1       -0.0246
     29 C          -9.5780    6.0963    0.2546 C.ar    1  LIG1        0.0519
     30 C          -8.9657    7.2323   -0.2813 C.ar    1  LIG1        0.1005
     31 N          -7.7276    7.2107   -0.7820 N.ar    1  LIG1       -0.2104
     32 H          -9.2491    4.0023    0.6652 H       1  LIG1        0.0645
     33 O          -5.8014    6.1233   -1.3176 O.3     1  LIG1       -0.4919
     34 H          -5.6618    7.0251   -1.6366 H       1  LIG1        0.2937
     35 N         -10.8700    6.1412    0.8032 N.pl3   1  LIG1       -0.3563
     36 H         -11.4628    6.8395    0.3699 H       1  LIG1        0.1424
     37 H         -11.3245    5.2377    0.8276 H       1  LIG1        0.1424
     38 C          -9.8582    9.2464   -1.5167 C.ar    1  LIG1        0.2219
     39 C          -9.6820    8.5408   -0.3142 C.ar    1  LIG1        0.0653
     40 C         -10.1845    9.1185    0.8424 C.ar    1  LIG1       -0.0252
     41 C         -10.8256   10.3630    0.7944 C.ar    1  LIG1        0.0438
     42 C         -10.9218   10.9701   -0.4544 C.ar    1  LIG1        0.0520
     43 N         -10.4548   10.4184   -1.5752 N.ar    1  LIG1       -0.2191
     44 H         -10.0676    8.5967    1.7863 H       1  LIG1        0.0645
     45 H         -11.3955   11.9402   -0.5570 H       1  LIG1        0.0849
     46 O          -9.4255    8.7033   -2.6731 O.3     1  LIG1       -0.4919
     47 H          -9.6318    9.3359   -3.3737 H       1  LIG1        0.2937
     48 N         -11.2874   10.9964    1.9567 N.pl3   1  LIG1       -0.3568
     49 H         -12.0134   11.6808    1.7933 H       1  LIG1        0.1424
     50 H         -11.5443   10.3608    2.6996 H       1  LIG1        0.1424
@<TRIPOS>BOND
     1    47    46    1
     2    46    38    1
     3     9    10    1
     4     9     1    1
     5    25    23    1
     6    24    23    1
     7    34    33    1
     8    43    38   ar
     9    43    42   ar
    10    38    39   ar
    11    23    17    1
    12    33    26    1
    13     1     6   ar
    14     1     2   ar
    15     6     5   ar
    16    20    16    1
    17    31    26   ar
    18    31    30   ar
    19    26    27   ar
    20    17    16   ar
    21    17    18   ar
    22    16    15   ar
    23    45    42    1
    24    42    41   ar
    25    39    30    1
    26    39    40   ar
    27    30    29   ar
    28     8     2    1
    29    27    18    1
    30    27    28   ar
    31    18    19   ar
    32     2     3   ar
    33    15     5    1
    34    15    14   ar
    35     5     4   ar
    36    29    28   ar
    37    29    35    1
    38    28    32    1
    39    19    14   ar
    40    36    35    1
    41    14    21    1
    42    41    40   ar
    43    41    48    1
    44    35    37    1
    45    40    44    1
    46    21    22    1
    47     3     4   ar
    48     3     7    1
    49     4    11    1
    50    49    48    1
    51    48    50    1
    52    13    11    1
    53    11    12    1
