@<TRIPOS>MOLECULE
mol_data/opt/m06hf/geoms/mol2/6fh6fh6fh-6fh-.out
 50 53 0 0 0
SMALL
GASTEIGER

@<TRIPOS>ATOM
      1 C          -4.4935   -2.2107   -0.3841 C.ar    1  LIG1        0.2129
      2 C          -3.1147   -2.3171   -0.1881 C.ar    1  LIG1        0.0016
      3 C          -2.4026   -1.1468    0.0032 C.ar    1  LIG1       -0.0339
      4 C          -3.0463    0.0941    0.0316 C.ar    1  LIG1        0.0513
      5 C          -4.4471    0.0879   -0.0955 C.ar    1  LIG1        0.1005
      6 N          -5.1122   -1.0516   -0.3314 N.ar    1  LIG1       -0.2110
      7 H          -1.3266   -1.1868    0.1250 H       1  LIG1        0.0638
      8 H          -2.6173   -3.2773   -0.2102 H       1  LIG1        0.0671
      9 O          -5.2901   -3.2741   -0.6395 O.3     1  LIG1       -0.4924
     10 H          -4.7723   -4.0835   -0.6971 H       1  LIG1        0.2937
     11 N          -2.3114    1.2765    0.2020 N.pl3   1  LIG1       -0.3563
     12 H          -1.3302    1.1673   -0.0206 H       1  LIG1        0.1424
     13 H          -2.7099    2.0681   -0.2919 H       1  LIG1        0.1424
     14 C          -6.5055    1.4069   -0.7299 C.ar    1  LIG1        0.2224
     15 C          -5.2812    1.3176   -0.0207 C.ar    1  LIG1        0.0654
     16 C          -4.9295    2.4064    0.7713 C.ar    1  LIG1       -0.0246
     17 C          -5.7081    3.5662    0.8116 C.ar    1  LIG1        0.0519
     18 C          -6.8389    3.5798   -0.0218 C.ar    1  LIG1        0.1005
     19 N          -7.2143    2.5166   -0.7356 N.ar    1  LIG1       -0.2104
     20 H          -4.0424    2.3454    1.3922 H       1  LIG1        0.0645
     21 O          -7.0043    0.3794   -1.4265 O.3     1  LIG1       -0.4919
     22 H          -6.5282   -0.4338   -1.1397 H       1  LIG1        0.2937
     23 N          -5.4175    4.6038    1.7038 N.pl3   1  LIG1       -0.3563
     24 H          -4.5487    4.4636    2.2019 H       1  LIG1        0.1424
     25 H          -5.4626    5.5241    1.2780 H       1  LIG1        0.1424
     26 C          -7.4269    6.0772   -0.2244 C.ar    1  LIG1        0.2224
     27 C          -7.7892    4.7292   -0.0973 C.ar    1  LIG1        0.0654
     28 C          -9.1503    4.4608   -0.1182 C.ar    1  LIG1       -0.0246
     29 C         -10.0920    5.4881   -0.2101 C.ar    1  LIG1        0.0519
     30 C          -9.6002    6.7964   -0.2851 C.ar    1  LIG1        0.1005
     31 N          -8.2931    7.0595   -0.3039 N.ar    1  LIG1       -0.2104
     32 H          -9.4648    3.4243   -0.0766 H       1  LIG1        0.0645
     33 O          -6.1112    6.4280   -0.2994 O.3     1  LIG1       -0.4919
     34 H          -6.0956    7.3829   -0.4560 H       1  LIG1        0.2937
     35 N         -11.4684    5.2164   -0.1835 N.pl3   1  LIG1       -0.3563
     36 H         -12.0201    5.8905   -0.7008 H       1  LIG1        0.1424
     37 H         -11.6889    4.2697   -0.4654 H       1  LIG1        0.1424
     38 C         -10.4555    8.9164   -1.3704 C.ar    1  LIG1        0.2219
     39 C         -10.5298    7.9617   -0.3425 C.ar    1  LIG1        0.0653
     40 C         -11.4986    8.1507    0.6324 C.ar    1  LIG1       -0.0252
     41 C         -12.3516    9.2597    0.5826 C.ar    1  LIG1        0.0438
     42 C         -12.1720   10.1400   -0.4804 C.ar    1  LIG1        0.0520
     43 N         -11.2515    9.9640   -1.4289 N.ar    1  LIG1       -0.2191
     44 H         -11.5841    7.4282    1.4370 H       1  LIG1        0.0645
     45 H         -12.7949   11.0231   -0.5727 H       1  LIG1        0.0849
     46 O          -9.5543    8.7595   -2.3619 O.3     1  LIG1       -0.4919
     47 H          -9.6856    9.4957   -2.9738 H       1  LIG1        0.2937
     48 N         -13.2967    9.5055    1.5889 N.pl3   1  LIG1       -0.3568
     49 H         -14.0701   10.0872    1.2964 H       1  LIG1        0.1424
     50 H         -13.6232    8.6727    2.0602 H       1  LIG1        0.1424
@<TRIPOS>BOND
     1    47    46    1
     2    46    38    1
     3    43    38   ar
     4    43    42   ar
     5    21    22    1
     6    21    14    1
     7    38    39   ar
     8    19    14   ar
     9    19    18   ar
    10    14    15   ar
    11    36    35    1
    12    10     9    1
    13     9     1    1
    14    45    42    1
    15    42    41   ar
    16    37    35    1
    17    34    33    1
    18     1     6   ar
    19     1     2   ar
    20    39    30    1
    21    39    40   ar
    22     6     5   ar
    23    31    30   ar
    24    31    26   ar
    25    33    26    1
    26    13    11    1
    27    30    29   ar
    28    26    27   ar
    29     8     2    1
    30    29    35    1
    31    29    28   ar
    32     2     3   ar
    33    28    27   ar
    34    28    32    1
    35    27    18    1
    36     5    15    1
    37     5     4   ar
    38    18    17   ar
    39    15    16   ar
    40    12    11    1
    41     3     4   ar
    42     3     7    1
    43     4    11    1
    44    41    40   ar
    45    41    48    1
    46    40    44    1
    47    16    17   ar
    48    16    20    1
    49    17    23    1
    50    25    23    1
    51    49    48    1
    52    48    50    1
    53    23    24    1
