@<TRIPOS>MOLECULE
mol_data/opt/m06hf/geoms/mol2/6fh6fh-6fh6fh-.out
 50 53 0 0 0
SMALL
GASTEIGER

@<TRIPOS>ATOM
      1 C          -3.8292   -1.8060   -1.1271 C.ar    1  LIG1        0.2129
      2 C          -3.0048   -2.2291   -0.0782 C.ar    1  LIG1        0.0016
      3 C          -2.8923   -1.4065    1.0249 C.ar    1  LIG1       -0.0339
      4 C          -3.5849   -0.1885    1.0904 C.ar    1  LIG1        0.0513
      5 C          -4.3642    0.1407   -0.0311 C.ar    1  LIG1        0.1005
      6 N          -4.4753   -0.6646   -1.0929 N.ar    1  LIG1       -0.2110
      7 H          -2.2713   -1.7063    1.8607 H       1  LIG1        0.0638
      8 H          -2.4739   -3.1712   -0.1273 H       1  LIG1        0.0671
      9 O          -4.0188   -2.5487   -2.2489 O.3     1  LIG1       -0.4924
     10 H          -3.5233   -3.3720   -2.1937 H       1  LIG1        0.2937
     11 N          -3.5683    0.5864    2.2483 N.pl3   1  LIG1       -0.3563
     12 H          -2.9093    0.2603    2.9416 H       1  LIG1        0.1424
     13 H          -3.4789    1.5814    2.0762 H       1  LIG1        0.1424
     14 C          -4.8285    2.6652    0.2203 C.ar    1  LIG1        0.2224
     15 C          -5.2217    1.3610   -0.1102 C.ar    1  LIG1        0.0654
     16 C          -6.4961    1.2418   -0.6479 C.ar    1  LIG1       -0.0246
     17 C          -7.3334    2.3469   -0.7665 C.ar    1  LIG1        0.0519
     18 C          -6.8625    3.5886   -0.3273 C.ar    1  LIG1        0.1005
     19 N          -5.6084    3.7176    0.1179 N.ar    1  LIG1       -0.2104
     20 H          -6.8130    0.2645   -0.9944 H       1  LIG1        0.0645
     21 O          -3.5646    2.8979    0.6616 O.3     1  LIG1       -0.4919
     22 H          -3.4907    3.8521    0.8062 H       1  LIG1        0.2937
     23 N          -8.6486    2.2394   -1.3009 N.pl3   1  LIG1       -0.3563
     24 H          -8.7849    2.8540   -2.1015 H       1  LIG1        0.1424
     25 H          -8.8881    1.2872   -1.5553 H       1  LIG1        0.1424
     26 C          -9.0179    4.9219    0.0341 C.ar    1  LIG1        0.2224
     27 C          -7.6706    4.8401   -0.3788 C.ar    1  LIG1        0.0654
     28 C          -7.0395    6.0196   -0.7570 C.ar    1  LIG1       -0.0246
     29 C          -7.7079    7.2433   -0.7432 C.ar    1  LIG1        0.0519
     30 C          -9.0514    7.2059   -0.3237 C.ar    1  LIG1        0.1005
     31 N          -9.6559    6.0785    0.0473 N.ar    1  LIG1       -0.2104
     32 H          -5.9936    5.9766   -1.0391 H       1  LIG1        0.0645
     33 O          -9.7071    3.8589    0.4841 O.3     1  LIG1       -0.4919
     34 H          -9.4737    3.0685   -0.0697 H       1  LIG1        0.2937
     35 N          -7.0453    8.4389   -1.0311 N.pl3   1  LIG1       -0.3563
     36 H          -6.1090    8.2952   -1.3842 H       1  LIG1        0.1424
     37 H          -7.5815    9.0627   -1.6256 H       1  LIG1        0.1424
     38 C         -10.0287    9.4554   -1.0999 C.ar    1  LIG1        0.2219
     39 C          -9.8919    8.4309   -0.1556 C.ar    1  LIG1        0.0653
     40 C         -10.6613    8.5454    0.9952 C.ar    1  LIG1       -0.0252
     41 C         -11.4868    9.6530    1.1999 C.ar    1  LIG1        0.0438
     42 C         -11.5070   10.6182    0.1942 C.ar    1  LIG1        0.0520
     43 N         -10.8000   10.5075   -0.9280 N.ar    1  LIG1       -0.2191
     44 H         -10.6099    7.7456    1.7245 H       1  LIG1        0.0645
     45 H         -12.1193   11.5071    0.2969 H       1  LIG1        0.0849
     46 O          -9.3641    9.3826   -2.2897 O.3     1  LIG1       -0.4919
     47 H          -9.6320   10.1615   -2.7965 H       1  LIG1        0.2937
     48 N         -12.2176    9.8205    2.3830 N.pl3   1  LIG1       -0.3568
     49 H         -13.0606   10.3683    2.2761 H       1  LIG1        0.1424
     50 H         -12.4019    8.9571    2.8758 H       1  LIG1        0.1424
@<TRIPOS>BOND
     1    47    46    1
     2    46    38    1
     3     9    10    1
     4     9     1    1
     5    24    23    1
     6    37    35    1
     7    25    23    1
     8    36    35    1
     9    23    17    1
    10     1     6   ar
    11     1     2   ar
    12    38    43   ar
    13    38    39   ar
    14     6     5   ar
    15    32    28    1
    16    35    29    1
    17    20    16    1
    18    43    42   ar
    19    17    16   ar
    20    17    18   ar
    21    28    29   ar
    22    28    27   ar
    23    29    30   ar
    24    16    15   ar
    25    27    18    1
    26    27    26   ar
    27    18    19   ar
    28    30    39    1
    29    30    31   ar
    30    39    40   ar
    31     8     2    1
    32    15     5    1
    33    15    14   ar
    34     2     3   ar
    35    34    33    1
    36     5     4   ar
    37    26    31   ar
    38    26    33    1
    39    19    14   ar
    40    42    45    1
    41    42    41   ar
    42    14    21    1
    43    21    22    1
    44    40    41   ar
    45    40    44    1
    46     3     4   ar
    47     3     7    1
    48     4    11    1
    49    41    48    1
    50    13    11    1
    51    11    12    1
    52    49    48    1
    53    48    50    1
