@<TRIPOS>MOLECULE
mol_data/opt/m06hf/geoms/mol2/6fh6fh-6fh-6fh.out
 50 53 0 0 0
SMALL
GASTEIGER

@<TRIPOS>ATOM
      1 C           6.8991    1.0809   -0.5485 C.ar    1  LIG1        0.2129
      2 C           7.7541    0.1103   -0.0139 C.ar    1  LIG1        0.0016
      3 C           7.1792   -0.9891    0.5922 C.ar    1  LIG1       -0.0339
      4 C           5.7852   -1.1272    0.6674 C.ar    1  LIG1        0.0513
      5 C           5.0294   -0.0777    0.1190 C.ar    1  LIG1        0.1005
      6 N           5.5936    0.9788   -0.4762 N.ar    1  LIG1       -0.2110
      7 H           7.8094   -1.7672    1.0062 H       1  LIG1        0.0638
      8 H           8.8300    0.2143   -0.0754 H       1  LIG1        0.0671
      9 O           7.3612    2.1908   -1.1828 O.3     1  LIG1       -0.4924
     10 H           8.3235    2.1969   -1.1888 H       1  LIG1        0.2937
     11 N           5.2083   -2.2912    1.1730 N.pl3   1  LIG1       -0.3563
     12 H           5.8751   -2.9037    1.6227 H       1  LIG1        0.1424
     13 H           4.3967   -2.1242    1.7584 H       1  LIG1        0.1424
     14 C           2.6691   -0.4025    1.1059 C.ar    1  LIG1        0.2224
     15 C           3.5362   -0.0759    0.0535 C.ar    1  LIG1        0.0654
     16 C           2.9302    0.3678   -1.1134 C.ar    1  LIG1       -0.0246
     17 C           1.5407    0.4341   -1.2339 C.ar    1  LIG1        0.0519
     18 C           0.7867    0.0288   -0.1266 C.ar    1  LIG1        0.1005
     19 N           1.3610   -0.3641    1.0105 N.ar    1  LIG1       -0.2104
     20 H           3.5694    0.6856   -1.9286 H       1  LIG1        0.0645
     21 O           3.1726   -0.7622    2.3195 O.3     1  LIG1       -0.4919
     22 H           2.4118   -0.8710    2.9072 H       1  LIG1        0.2937
     23 N           0.9324    0.8506   -2.4310 N.pl3   1  LIG1       -0.3563
     24 H           0.0730    1.3668   -2.2807 H       1  LIG1        0.1424
     25 H           1.5638    1.3694   -3.0285 H       1  LIG1        0.1424
     26 C          -1.4897    0.6209    0.8249 C.ar    1  LIG1        0.2224
     27 C          -0.7030    0.0145   -0.1724 C.ar    1  LIG1        0.0654
     28 C          -1.3901   -0.6030   -1.2052 C.ar    1  LIG1       -0.0246
     29 C          -2.7852   -0.6448   -1.2101 C.ar    1  LIG1        0.0519
     30 C          -3.4692   -0.0685   -0.1373 C.ar    1  LIG1        0.1005
     31 N          -2.8045    0.5788    0.8294 N.ar    1  LIG1       -0.2104
     32 H          -0.8270   -1.0461   -2.0203 H       1  LIG1        0.0645
     33 O          -0.8911    1.2956    1.8204 O.3     1  LIG1       -0.4919
     34 H          -1.5900    1.6049    2.4126 H       1  LIG1        0.2937
     35 N          -3.5105   -1.2784   -2.2591 N.pl3   1  LIG1       -0.3563
     36 H          -4.1719   -0.6456   -2.7051 H       1  LIG1        0.1424
     37 H          -2.9055   -1.6940   -2.9587 H       1  LIG1        0.1424
     38 C          -5.7723   -1.1887   -0.2581 C.ar    1  LIG1        0.2219
     39 C          -4.9565   -0.0613   -0.0171 C.ar    1  LIG1        0.0653
     40 C          -5.5637    1.1009    0.4566 C.ar    1  LIG1       -0.0252
     41 C          -6.9375    1.1456    0.6616 C.ar    1  LIG1        0.0438
     42 C          -7.6437   -0.0309    0.3897 C.ar    1  LIG1        0.0520
     43 N          -7.0822   -1.1446   -0.0547 N.ar    1  LIG1       -0.2191
     44 H          -4.9392    1.9568    0.6846 H       1  LIG1        0.0645
     45 H          -8.7175   -0.0634    0.5483 H       1  LIG1        0.0849
     46 O          -5.2799   -2.3735   -0.6546 O.3     1  LIG1       -0.4919
     47 H          -4.5411   -2.2211   -1.2987 H       1  LIG1        0.2937
     48 N          -7.5824    2.2808    1.1777 N.pl3   1  LIG1       -0.3568
     49 H          -7.1127    3.1503    0.9640 H       1  LIG1        0.1424
     50 H          -8.5641    2.3342    0.9396 H       1  LIG1        0.1424
@<TRIPOS>BOND
     1    25    23    1
     2    37    35    1
     3    36    35    1
     4    23    24    1
     5    23    17    1
     6    35    29    1
     7    32    28    1
     8    20    16    1
     9    47    46    1
    10    17    16   ar
    11    17    18   ar
    12    29    28   ar
    13    29    30   ar
    14    28    27   ar
    15    10     9    1
    16     9     1    1
    17    16    15   ar
    18    46    38    1
    19     1     6   ar
    20     1     2   ar
    21     6     5   ar
    22    38    43   ar
    23    38    39   ar
    24    27    18    1
    25    27    26   ar
    26    30    39    1
    27    30    31   ar
    28    18    19   ar
    29     8     2    1
    30    43    42   ar
    31    39    40   ar
    32     2     3   ar
    33    15     5    1
    34    15    14   ar
    35     5     4   ar
    36    42    45    1
    37    42    41   ar
    38    40    41   ar
    39    40    44    1
    40     3     4   ar
    41     3     7    1
    42    41    48    1
    43     4    11    1
    44    26    31   ar
    45    26    33    1
    46    50    48    1
    47    49    48    1
    48    19    14   ar
    49    14    21    1
    50    11    12    1
    51    11    13    1
    52    33    34    1
    53    21    22    1
