@<TRIPOS>MOLECULE
mol_data/opt/m06hf/geoms/mol2/6fh6fh.out
 26 27 0 0 0
SMALL
GASTEIGER

@<TRIPOS>ATOM
      1 C          -4.4897   -2.0682    0.3774 C.ar    1  LIG1        0.2129
      2 C          -3.1036   -2.1078    0.2041 C.ar    1  LIG1        0.0016
      3 C          -2.4685   -0.9319   -0.1513 C.ar    1  LIG1       -0.0339
      4 C          -3.1859    0.2591   -0.2975 C.ar    1  LIG1        0.0513
      5 C          -4.5625    0.2121   -0.0188 C.ar    1  LIG1        0.1005
      6 N          -5.1685   -0.9470    0.2721 N.ar    1  LIG1       -0.2110
      7 H          -1.3995   -0.9308   -0.3294 H       1  LIG1        0.0638
      8 H          -2.5492   -3.0295    0.3193 H       1  LIG1        0.0671
      9 O          -5.2312   -3.1636    0.6604 O.3     1  LIG1       -0.4924
     10 H          -4.6839   -3.9554    0.6661 H       1  LIG1        0.2937
     11 N          -2.5362    1.4408   -0.6877 N.pl3   1  LIG1       -0.3563
     12 H          -1.6565    1.2682   -1.1577 H       1  LIG1        0.1424
     13 H          -3.1287    2.0503   -1.2417 H       1  LIG1        0.1424
     14 C          -6.8047    1.2865   -0.4507 C.ar    1  LIG1        0.2219
     15 C          -5.4448    1.4103   -0.0708 C.ar    1  LIG1        0.0653
     16 C          -4.9834    2.6778    0.2823 C.ar    1  LIG1       -0.0252
     17 C          -5.8213    3.7867    0.1784 C.ar    1  LIG1        0.0438
     18 C          -7.1131    3.5496   -0.2925 C.ar    1  LIG1        0.0520
     19 N          -7.5867    2.3442   -0.5805 N.ar    1  LIG1       -0.2191
     20 H          -3.9712    2.7958    0.6528 H       1  LIG1        0.0645
     21 H          -7.8024    4.3783   -0.4218 H       1  LIG1        0.0849
     22 O          -7.3660    0.0999   -0.7073 O.3     1  LIG1       -0.4919
     23 H          -6.7919   -0.5951   -0.3153 H       1  LIG1        0.2937
     24 N          -5.4079    5.0678    0.5810 N.pl3   1  LIG1       -0.3568
     25 H          -4.4196    5.2391    0.4530 H       1  LIG1        0.1424
     26 H          -5.9597    5.8164    0.1836 H       1  LIG1        0.1424
@<TRIPOS>BOND
     1    13    11    1
     2    12    11    1
     3    22    14    1
     4    22    23    1
     5    11     4    1
     6    19    14   ar
     7    19    18   ar
     8    14    15   ar
     9    21    18    1
    10     7     3    1
    11     4     3   ar
    12     4     5   ar
    13    18    17   ar
    14     3     2   ar
    15    15     5    1
    16    15    16   ar
    17     5     6   ar
    18    17    16   ar
    19    17    24    1
    20    26    24    1
    21     2     8    1
    22     2     1   ar
    23     6     1   ar
    24    16    20    1
    25     1     9    1
    26    25    24    1
    27     9    10    1
