@<TRIPOS>MOLECULE
mol_data/opt/m06hf/geoms/mol2/6fh6fh6fh6fh-.out
 50 53 0 0 0
SMALL
GASTEIGER

@<TRIPOS>ATOM
      1 C          -4.4560   -2.1488    0.6267 C.ar    1  LIG1        0.2129
      2 C          -3.1332   -2.3169    0.2096 C.ar    1  LIG1        0.0016
      3 C          -2.5108   -1.2404   -0.3949 C.ar    1  LIG1       -0.0339
      4 C          -3.1683   -0.0151   -0.5443 C.ar    1  LIG1        0.0513
      5 C          -4.4639    0.0809   -0.0095 C.ar    1  LIG1        0.1005
      6 N          -5.0724   -0.9926    0.5156 N.ar    1  LIG1       -0.2110
      7 H          -1.4987   -1.3457   -0.7676 H       1  LIG1        0.0638
      8 H          -2.6239   -3.2636    0.3289 H       1  LIG1        0.0671
      9 O          -5.1957   -3.1395    1.1700 O.3     1  LIG1       -0.4924
     10 H          -4.7031   -3.9660    1.1962 H       1  LIG1        0.2937
     11 N          -2.5388    1.0657   -1.1846 N.pl3   1  LIG1       -0.3563
     12 H          -1.7276    0.7822   -1.7200 H       1  LIG1        0.1424
     13 H          -3.1766    1.6019   -1.7646 H       1  LIG1        0.1424
     14 C          -6.6864    1.2681   -0.0072 C.ar    1  LIG1        0.2224
     15 C          -5.2702    1.3315   -0.0058 C.ar    1  LIG1        0.0654
     16 C          -4.6985    2.5997    0.0230 C.ar    1  LIG1       -0.0246
     17 C          -5.4757    3.7585    0.0140 C.ar    1  LIG1        0.0519
     18 C          -6.8702    3.5914    0.0056 C.ar    1  LIG1        0.1005
     19 N          -7.4138    2.3677   -0.0284 N.ar    1  LIG1       -0.2104
     20 H          -3.6185    2.6918    0.0601 H       1  LIG1        0.0645
     21 O          -7.3559    0.1180    0.0102 O.3     1  LIG1       -0.4919
     22 H          -6.7221   -0.5874    0.2927 H       1  LIG1        0.2937
     23 N          -4.8649    5.0264    0.0293 N.pl3   1  LIG1       -0.3563
     24 H          -3.8861    4.9880   -0.2255 H       1  LIG1        0.1424
     25 H          -5.3567    5.7056   -0.5430 H       1  LIG1        0.1424
     26 C          -9.1234    4.5754   -0.5645 C.ar    1  LIG1        0.2224
     27 C          -7.8374    4.7215    0.0182 C.ar    1  LIG1        0.0654
     28 C          -7.5587    5.9375    0.6338 C.ar    1  LIG1       -0.0246
     29 C          -8.4738    6.9940    0.6194 C.ar    1  LIG1        0.0519
     30 C          -9.6674    6.7686   -0.0849 C.ar    1  LIG1        0.1005
     31 N          -9.9656    5.5859   -0.6267 N.ar    1  LIG1       -0.2104
     32 H          -6.6219    6.0601    1.1658 H       1  LIG1        0.0645
     33 O          -9.5452    3.4145   -1.0747 O.3     1  LIG1       -0.4919
     34 H          -8.9453    2.7071   -0.7324 H       1  LIG1        0.2937
     35 N          -8.2379    8.1644    1.3499 N.pl3   1  LIG1       -0.3563
     36 H          -7.3106    8.1953    1.7519 H       1  LIG1        0.1424
     37 H          -8.4474    9.0090    0.8287 H       1  LIG1        0.1424
     38 C         -10.5971    9.1302   -0.5104 C.ar    1  LIG1        0.2219
     39 C         -10.7652    7.7771   -0.1888 C.ar    1  LIG1        0.0653
     40 C         -12.0735    7.3414   -0.0210 C.ar    1  LIG1       -0.0252
     41 C         -13.1464    8.2287   -0.1320 C.ar    1  LIG1        0.0438
     42 C         -12.8386    9.5562   -0.4236 C.ar    1  LIG1        0.0520
     43 N         -11.5924    9.9839   -0.6155 N.ar    1  LIG1       -0.2191
     44 H         -12.2368    6.2910    0.1883 H       1  LIG1        0.0645
     45 H         -13.6252   10.2971   -0.5138 H       1  LIG1        0.0849
     46 O          -9.3510    9.6256   -0.7660 O.3     1  LIG1       -0.4919
     47 H          -9.4769   10.5541   -1.0061 H       1  LIG1        0.2937
     48 N         -14.4660    7.8178    0.0965 N.pl3   1  LIG1       -0.3568
     49 H         -15.1627    8.3869   -0.3650 H       1  LIG1        0.1424
     50 H         -14.6227    6.8345   -0.0796 H       1  LIG1        0.1424
@<TRIPOS>BOND
     1    13    11    1
     2    12    11    1
     3    11     4    1
     4    33    34    1
     5    33    26    1
     6    47    46    1
     7     7     3    1
     8    46    38    1
     9    31    26   ar
    10    31    30   ar
    11    43    38   ar
    12    43    42   ar
    13    26    27   ar
    14     4     3   ar
    15     4     5   ar
    16    25    23    1
    17    45    42    1
    18    38    39   ar
    19    42    41   ar
    20     3     2   ar
    21    49    48    1
    22    24    23    1
    23    39    30    1
    24    39    40   ar
    25    41    40   ar
    26    41    48    1
    27    30    29   ar
    28    50    48    1
    29    19    14   ar
    30    19    18   ar
    31    40    44    1
    32     5    15    1
    33     5     6   ar
    34    14    15   ar
    35    14    21    1
    36    15    16   ar
    37    18    17   ar
    38    18    27    1
    39    21    22    1
    40    17    16   ar
    41    17    23    1
    42    27    28   ar
    43    16    20    1
    44     2     8    1
    45     2     1   ar
    46     6     1   ar
    47    29    28   ar
    48    29    35    1
    49     1     9    1
    50    28    32    1
    51    37    35    1
    52     9    10    1
    53    35    36    1
