@<TRIPOS>MOLECULE
mol_data/opt/m06hf/geoms/mol2/6fh6fh6fh-6fh.out
 50 53 0 0 0
SMALL
GASTEIGER

@<TRIPOS>ATOM
      1 C          -4.5607   -2.2213   -0.4192 C.ar    1  LIG1        0.2129
      2 C          -3.1726   -2.3466   -0.3199 C.ar    1  LIG1        0.0016
      3 C          -2.4313   -1.1855   -0.2003 C.ar    1  LIG1       -0.0339
      4 C          -3.0526    0.0666   -0.1469 C.ar    1  LIG1        0.0513
      5 C          -4.4581    0.0807   -0.1697 C.ar    1  LIG1        0.1005
      6 N          -5.1556   -1.0518   -0.3395 N.ar    1  LIG1       -0.2110
      7 H          -1.3499   -1.2409   -0.1556 H       1  LIG1        0.0638
      8 H          -2.6926   -3.3150   -0.3618 H       1  LIG1        0.0671
      9 O          -5.3887   -3.2744   -0.6038 O.3     1  LIG1       -0.4924
     10 H          -4.8903   -4.0948   -0.6770 H       1  LIG1        0.2937
     11 N          -2.2889    1.2392   -0.0517 N.pl3   1  LIG1       -0.3563
     12 H          -1.3269    1.1077   -0.3367 H       1  LIG1        0.1424
     13 H          -2.7058    2.0262   -0.5375 H       1  LIG1        0.1424
     14 C          -6.5518    1.4106   -0.6495 C.ar    1  LIG1        0.2224
     15 C          -5.2699    1.3223   -0.0472 C.ar    1  LIG1        0.0654
     16 C          -4.8422    2.4198    0.6922 C.ar    1  LIG1       -0.0246
     17 C          -5.6063    3.5878    0.7818 C.ar    1  LIG1        0.0519
     18 C          -6.8085    3.5936    0.0583 C.ar    1  LIG1        0.1005
     19 N          -7.2529    2.5238   -0.6055 N.ar    1  LIG1       -0.2104
     20 H          -3.9050    2.3614    1.2345 H       1  LIG1        0.0645
     21 O          -7.1137    0.3795   -1.2882 O.3     1  LIG1       -0.4919
     22 H          -6.6188   -0.4344   -1.0322 H       1  LIG1        0.2937
     23 N          -5.2287    4.6394    1.6218 N.pl3   1  LIG1       -0.3563
     24 H          -4.3225    4.5030    2.0485 H       1  LIG1        0.1424
     25 H          -5.3111    5.5537    1.1905 H       1  LIG1        0.1424
     26 C          -7.4319    6.0889   -0.1200 C.ar    1  LIG1        0.2224
     27 C          -7.7645    4.7397    0.0617 C.ar    1  LIG1        0.0654
     28 C          -9.1220    4.4683    0.1597 C.ar    1  LIG1       -0.0246
     29 C         -10.0626    5.4938    0.1560 C.ar    1  LIG1        0.0519
     30 C          -9.6088    6.8131    0.0536 C.ar    1  LIG1        0.1005
     31 N          -8.3079    7.0686   -0.1222 N.ar    1  LIG1       -0.2104
     32 H          -9.4280    3.4298    0.2190 H       1  LIG1        0.0645
     33 O          -6.1370    6.4453   -0.3306 O.3     1  LIG1       -0.4919
     34 H          -6.1336    7.4057   -0.4481 H       1  LIG1        0.2937
     35 N         -11.4570    5.2315    0.2720 N.pl3   1  LIG1       -0.3563
     36 H         -11.9827    5.6123   -0.5124 H       1  LIG1        0.1424
     37 H         -11.6582    4.2421    0.3710 H       1  LIG1        0.1424
     38 C         -11.5702    8.1692    0.9825 C.ar    1  LIG1        0.2219
     39 C         -10.5120    8.0003    0.0628 C.ar    1  LIG1        0.0653
     40 C         -10.2325    9.0431   -0.8182 C.ar    1  LIG1       -0.0252
     41 C         -10.9946   10.2054   -0.7968 C.ar    1  LIG1        0.0438
     42 C         -12.0126   10.2635    0.1598 C.ar    1  LIG1        0.0520
     43 N         -12.2879    9.2840    1.0077 N.ar    1  LIG1       -0.2191
     44 H          -9.3983    8.9371   -1.5020 H       1  LIG1        0.0645
     45 H         -12.6284   11.1546    0.2379 H       1  LIG1        0.0849
     46 O         -11.8817    7.2454    1.9060 O.3     1  LIG1       -0.4919
     47 H         -11.7960    6.3420    1.5028 H       1  LIG1        0.2937
     48 N         -10.7230   11.2948   -1.6408 N.pl3   1  LIG1       -0.3568
     49 H         -10.2995   11.0326   -2.5208 H       1  LIG1        0.1424
     50 H         -11.5197   11.8993   -1.7921 H       1  LIG1        0.1424
@<TRIPOS>BOND
     1    49    48    1
     2    50    48    1
     3    48    41    1
     4    44    40    1
     5    21    22    1
     6    21    14    1
     7    40    41   ar
     8    40    39   ar
     9    41    42   ar
    10    10     9    1
    11    14    19   ar
    12    14    15   ar
    13    19    18   ar
    14     9     1    1
    15    13    11    1
    16    36    35    1
    17    34    33    1
    18     1     6   ar
    19     1     2   ar
    20     8     2    1
    21     6     5   ar
    22    12    11    1
    23    33    26    1
    24     2     3   ar
    25     3     7    1
    26     3     4   ar
    27     5     4   ar
    28     5    15    1
    29     4    11    1
    30    31    26   ar
    31    31    30   ar
    32    26    27   ar
    33    15    16   ar
    34    30    39    1
    35    30    29   ar
    36    18    27    1
    37    18    17   ar
    38    27    28   ar
    39    39    38   ar
    40    29    28   ar
    41    29    35    1
    42    28    32    1
    43    42    45    1
    44    42    43   ar
    45    35    37    1
    46    16    17   ar
    47    16    20    1
    48    17    23    1
    49    38    43   ar
    50    38    46    1
    51    25    23    1
    52    47    46    1
    53    23    24    1
