@<TRIPOS>MOLECULE
mol_data/opt/m06hf/geoms/mol2/6fh6fh-.out
 26 27 0 0 0
SMALL
GASTEIGER

@<TRIPOS>ATOM
      1 C          -4.4888   -1.9798    0.5330 C.ar    1  LIG1        0.2129
      2 C          -3.1842   -2.1230    0.0476 C.ar    1  LIG1        0.0016
      3 C          -2.5533   -0.9966   -0.4426 C.ar    1  LIG1       -0.0339
      4 C          -3.2025    0.2458   -0.4555 C.ar    1  LIG1        0.0513
      5 C          -4.5024    0.2720    0.0771 C.ar    1  LIG1        0.1005
      6 N          -5.1099   -0.8239    0.5428 N.ar    1  LIG1       -0.2110
      7 H          -1.5465   -1.0705   -0.8362 H       1  LIG1        0.0638
      8 H          -2.6861   -3.0841    0.0526 H       1  LIG1        0.0671
      9 O          -5.2023   -3.0286    1.0212 O.3     1  LIG1       -0.4924
     10 H          -4.6793   -3.8357    0.9831 H       1  LIG1        0.2937
     11 N          -2.6123    1.3592   -1.0554 N.pl3   1  LIG1       -0.3563
     12 H          -1.6469    1.2059   -1.3130 H       1  LIG1        0.1424
     13 H          -2.7275    2.2149   -0.5222 H       1  LIG1        0.1424
     14 C          -4.9654    2.7664    0.4989 C.ar    1  LIG1        0.2219
     15 C          -5.3664    1.4921    0.0797 C.ar    1  LIG1        0.0653
     16 C          -6.6966    1.3577   -0.2985 C.ar    1  LIG1       -0.0252
     17 C          -7.5575    2.4577   -0.3019 C.ar    1  LIG1        0.0438
     18 C          -7.0236    3.6761    0.1146 C.ar    1  LIG1        0.0520
     19 N          -5.7602    3.8147    0.5085 N.ar    1  LIG1       -0.2191
     20 H          -7.0520    0.3730   -0.5783 H       1  LIG1        0.0645
     21 H          -7.6412    4.5669    0.1451 H       1  LIG1        0.0849
     22 O          -3.6945    2.9695    0.9520 O.3     1  LIG1       -0.4919
     23 H          -3.6572    3.8890    1.2491 H       1  LIG1        0.2937
     24 N          -8.9088    2.3365   -0.6473 N.pl3   1  LIG1       -0.3568
     25 H          -9.3289    3.1904   -0.9883 H       1  LIG1        0.1424
     26 H          -9.1106    1.5573   -1.2585 H       1  LIG1        0.1424
@<TRIPOS>BOND
     1    12    11    1
     2    26    24    1
     3    11    13    1
     4    11     4    1
     5    25    24    1
     6     7     3    1
     7    24    17    1
     8    20    16    1
     9     4     3   ar
    10     4     5   ar
    11     3     2   ar
    12    17    16   ar
    13    17    18   ar
    14    16    15   ar
    15     2     8    1
    16     2     1   ar
    17     5    15    1
    18     5     6   ar
    19    15    14   ar
    20    18    21    1
    21    18    19   ar
    22    14    19   ar
    23    14    22    1
    24     1     6   ar
    25     1     9    1
    26    22    23    1
    27    10     9    1
