@<TRIPOS>MOLECULE
mol_data/opt/m06hf/geoms/mol2/6fh6fh6fh.out
 38 40 0 0 0
SMALL
GASTEIGER

@<TRIPOS>ATOM
      1 C          -4.4413   -2.0717    0.7009 C.ar    1  LIG1        0.2129
      2 C          -3.0898   -2.1997    0.3695 C.ar    1  LIG1        0.0016
      3 C          -2.4652   -1.1060   -0.2012 C.ar    1  LIG1       -0.0339
      4 C          -3.1512    0.0959   -0.4018 C.ar    1  LIG1        0.0513
      5 C          -4.4800    0.1534    0.0495 C.ar    1  LIG1        0.1005
      6 N          -5.0850   -0.9361    0.5436 N.ar    1  LIG1       -0.2110
      7 H          -1.4291   -1.1808   -0.5099 H       1  LIG1        0.0638
      8 H          -2.5588   -3.1291    0.5271 H       1  LIG1        0.0671
      9 O          -5.1828   -3.0836    1.2007 O.3     1  LIG1       -0.4924
     10 H          -4.6694   -3.8961    1.2550 H       1  LIG1        0.2937
     11 N          -2.5185    1.1929   -1.0115 N.pl3   1  LIG1       -0.3563
     12 H          -1.6540    0.9377   -1.4722 H       1  LIG1        0.1424
     13 H          -3.1291    1.6898   -1.6525 H       1  LIG1        0.1424
     14 C          -6.7352    1.2677   -0.0984 C.ar    1  LIG1        0.2224
     15 C          -5.3253    1.3770   -0.0098 C.ar    1  LIG1        0.0654
     16 C          -4.7971    2.6639    0.0390 C.ar    1  LIG1       -0.0246
     17 C          -5.6090    3.7957   -0.0332 C.ar    1  LIG1        0.0519
     18 C          -6.9941    3.5840   -0.1303 C.ar    1  LIG1        0.1005
     19 N          -7.4945    2.3432   -0.1815 N.ar    1  LIG1       -0.2104
     20 H          -3.7247    2.7899    0.1387 H       1  LIG1        0.0645
     21 O          -7.3694    0.0982   -0.1075 O.3     1  LIG1       -0.4919
     22 H          -6.7348   -0.5857    0.2216 H       1  LIG1        0.2937
     23 N          -5.0424    5.0850    0.0028 N.pl3   1  LIG1       -0.3563
     24 H          -4.0447    5.0740   -0.1688 H       1  LIG1        0.1424
     25 H          -5.5063    5.7308   -0.6286 H       1  LIG1        0.1424
     26 C          -9.2266    4.4857   -0.8816 C.ar    1  LIG1        0.2219
     27 C          -7.9959    4.6831   -0.2034 C.ar    1  LIG1        0.0653
     28 C          -7.7913    5.9138    0.4203 C.ar    1  LIG1       -0.0252
     29 C          -8.7363    6.9303    0.3003 C.ar    1  LIG1        0.0438
     30 C          -9.8665    6.6450   -0.4664 C.ar    1  LIG1        0.0520
     31 N         -10.1053    5.4644   -1.0223 N.ar    1  LIG1       -0.2191
     32 H          -6.8994    6.0707    1.0162 H       1  LIG1        0.0645
     33 H         -10.6241    7.4079   -0.6180 H       1  LIG1        0.0849
     34 O          -9.5610    3.3092   -1.4167 O.3     1  LIG1       -0.4919
     35 H          -8.9746    2.6230   -1.0153 H       1  LIG1        0.2937
     36 N          -8.5907    8.1620    0.9640 N.pl3   1  LIG1       -0.3568
     37 H          -7.6280    8.4385    1.1023 H       1  LIG1        0.1424
     38 H          -9.1234    8.9123    0.5439 H       1  LIG1        0.1424
@<TRIPOS>BOND
     1    13    11    1
     2    12    11    1
     3    34    35    1
     4    34    26    1
     5    31    26   ar
     6    31    30   ar
     7    11     4    1
     8    26    27   ar
     9    25    23    1
    10    33    30    1
    11     7     3    1
    12    30    29   ar
    13     4     3   ar
    14     4     5   ar
    15    27    18    1
    16    27    28   ar
    17     3     2   ar
    18    19    18   ar
    19    19    14   ar
    20    24    23    1
    21    18    17   ar
    22    21    14    1
    23    21    22    1
    24    14    15   ar
    25    17    23    1
    26    17    16   ar
    27    15    16   ar
    28    15     5    1
    29    16    20    1
    30     5     6   ar
    31    29    28   ar
    32    29    36    1
    33     2     8    1
    34     2     1   ar
    35    28    32    1
    36     6     1   ar
    37    38    36    1
    38     1     9    1
    39    36    37    1
    40     9    10    1
