@<TRIPOS>MOLECULE
mol_data/opt/m06hf/geoms/mol2/6fh6fh6fh6fh.out
 50 53 0 0 0
SMALL
GASTEIGER

@<TRIPOS>ATOM
      1 C          -4.3842   -2.0836    0.9830 C.ar    1  LIG1        0.2129
      2 C          -3.1045   -2.3140    0.4691 C.ar    1  LIG1        0.0016
      3 C          -2.5358   -1.3161   -0.2995 C.ar    1  LIG1       -0.0339
      4 C          -3.1984   -0.1039   -0.5198 C.ar    1  LIG1        0.0513
      5 C          -4.4388    0.0675    0.1153 C.ar    1  LIG1        0.1005
      6 N          -5.0011   -0.9362    0.8046 N.ar    1  LIG1       -0.2110
      7 H          -1.5635   -1.4758   -0.7507 H       1  LIG1        0.0638
      8 H          -2.5917   -3.2506    0.6414 H       1  LIG1        0.0671
      9 O          -5.0772   -3.0004    1.6897 O.3     1  LIG1       -0.4924
     10 H          -4.5962   -3.8322    1.7484 H       1  LIG1        0.2937
     11 N          -2.6254    0.8922   -1.3307 N.pl3   1  LIG1       -0.3563
     12 H          -1.8349    0.5508   -1.8635 H       1  LIG1        0.1424
     13 H          -3.3031    1.3292   -1.9482 H       1  LIG1        0.1424
     14 C          -6.6493    1.2733    0.2204 C.ar    1  LIG1        0.2224
     15 C          -5.2413    1.3194    0.0555 C.ar    1  LIG1        0.0654
     16 C          -4.6772    2.5751   -0.1446 C.ar    1  LIG1       -0.0246
     17 C          -5.4531    3.7328   -0.2129 C.ar    1  LIG1        0.0519
     18 C          -6.8380    3.5848   -0.0440 C.ar    1  LIG1        0.1005
     19 N          -7.3760    2.3711    0.1374 N.ar    1  LIG1       -0.2104
     20 H          -3.6009    2.6577   -0.2489 H       1  LIG1        0.0645
     21 O          -7.3123    0.1486    0.4609 O.3     1  LIG1       -0.4919
     22 H          -6.6475   -0.5332    0.7403 H       1  LIG1        0.2937
     23 N          -4.8501    4.9891   -0.4379 N.pl3   1  LIG1       -0.3563
     24 H          -3.8706    4.9041   -0.6804 H       1  LIG1        0.1424
     25 H          -5.3387    5.5284   -1.1470 H       1  LIG1        0.1424
     26 C          -9.1660    4.4665   -0.4204 C.ar    1  LIG1        0.2224
     27 C          -7.8128    4.7082   -0.0683 C.ar    1  LIG1        0.0654
     28 C          -7.4748    6.0189    0.2560 C.ar    1  LIG1       -0.0246
     29 C          -8.4066    7.0551    0.2015 C.ar    1  LIG1        0.0519
     30 C          -9.7165    6.7193   -0.1755 C.ar    1  LIG1        0.1005
     31 N         -10.0357    5.4571   -0.4886 N.ar    1  LIG1       -0.2104
     32 H          -6.4599    6.2388    0.5667 H       1  LIG1        0.0645
     33 O          -9.6304    3.2550   -0.7021 O.3     1  LIG1       -0.4919
     34 H          -8.9577    2.5994   -0.3723 H       1  LIG1        0.2937
     35 N          -8.0267    8.3746    0.5235 N.pl3   1  LIG1       -0.3563
     36 H          -7.0211    8.4890    0.5488 H       1  LIG1        0.1424
     37 H          -8.4452    9.0599   -0.0978 H       1  LIG1        0.1424
     38 C         -11.8961    7.4852   -1.1888 C.ar    1  LIG1        0.2219
     39 C         -10.8265    7.7062   -0.2808 C.ar    1  LIG1        0.0653
     40 C         -10.8857    8.8440    0.5229 C.ar    1  LIG1       -0.0252
     41 C         -11.9218    9.7631    0.3685 C.ar    1  LIG1        0.0438
     42 C         -12.8645    9.4811   -0.6196 C.ar    1  LIG1        0.0520
     43 N         -12.8572    8.3781   -1.3572 N.ar    1  LIG1       -0.2191
     44 H         -10.1300    9.0007    1.2841 H       1  LIG1        0.0645
     45 H         -13.6779   10.1758   -0.8055 H       1  LIG1        0.0849
     46 O         -11.9858    6.3728   -1.9208 O.3     1  LIG1       -0.4919
     47 H         -11.3842    5.7013   -1.5131 H       1  LIG1        0.2937
     48 N         -12.0444   10.8887    1.2040 N.pl3   1  LIG1       -0.3568
     49 H         -11.1579   11.2552    1.5242 H       1  LIG1        0.1424
     50 H         -12.6138   11.6243    0.8066 H       1  LIG1        0.1424
@<TRIPOS>BOND
     1    13    11    1
     2    46    47    1
     3    46    38    1
     4    12    11    1
     5    43    38   ar
     6    43    42   ar
     7    11     4    1
     8    38    39   ar
     9    25    23    1
    10    45    42    1
    11     7     3    1
    12    33    26    1
    13    33    34    1
    14    24    23    1
    15    42    41   ar
    16     4     3   ar
    17     4     5   ar
    18    31    26   ar
    19    31    30   ar
    20    23    17    1
    21    26    27   ar
    22     3     2   ar
    23    39    30    1
    24    39    40   ar
    25    20    16    1
    26    17    16   ar
    27    17    18   ar
    28    30    29   ar
    29    16    15   ar
    30    37    35    1
    31    27    18    1
    32    27    28   ar
    33    18    19   ar
    34    15     5    1
    35    15    14   ar
    36     5     6   ar
    37    19    14   ar
    38    29    28   ar
    39    29    35    1
    40    14    21    1
    41    28    32    1
    42    41    40   ar
    43    41    48    1
    44    21    22    1
    45     2     8    1
    46     2     1   ar
    47    40    44    1
    48    35    36    1
    49     6     1   ar
    50    50    48    1
    51     1     9    1
    52    48    49    1
    53     9    10    1
