@<TRIPOS>MOLECULE
mol_data/opt/m06hf/geoms/mol2/6fi4da4al-12ei.out
 52 55 0 0 0
SMALL
GASTEIGER

@<TRIPOS>ATOM
      1 C          -4.4786   -2.1017   -0.5911 C.ar    1  LIG1        0.2128
      2 C          -3.1123   -2.2409   -0.3060 C.ar    1  LIG1        0.0001
      3 C          -2.4378   -1.1217    0.1394 C.ar    1  LIG1       -0.0518
      4 C          -3.0892    0.1106    0.2766 C.ar    1  LIG1       -0.0242
      5 C          -4.4389    0.1272   -0.0818 C.ar    1  LIG1        0.0789
      6 N          -5.1144   -0.9573   -0.4808 N.ar    1  LIG1       -0.2127
      7 H          -1.3878   -1.1955    0.3974 H       1  LIG1        0.0622
      8 H          -2.6139   -3.1955   -0.4152 H       1  LIG1        0.0671
      9 O          -5.2382   -3.1444   -0.9964 O.3     1  LIG1       -0.4924
     10 H          -4.7072   -3.9441   -1.0682 H       1  LIG1        0.2937
     11 C          -2.3333    1.3016    0.8357 C.3     1  LIG1       -0.0377
     12 H          -3.0204    2.0676    1.1940 H       1  LIG1        0.0278
     13 H          -1.6910    1.7397    0.0710 H       1  LIG1        0.0278
     14 H          -1.7160    0.9731    1.6728 H       1  LIG1        0.0278
     15 C          -4.9572    2.5567   -0.6509 C.ar    1  LIG1        0.0615
     16 C          -5.7821    3.6800   -0.5680 C.ar    1  LIG1       -0.0360
     17 C          -5.2852    1.3614   -0.0010 C.ar    1  LIG1        0.0181
     18 C          -6.9622    3.6263    0.1702 C.ar    1  LIG1       -0.0165
     19 H          -5.5130    4.5774   -1.1097 H       1  LIG1        0.0637
     20 C          -6.4855    1.3099    0.7073 C.ar    1  LIG1       -0.0507
     21 C          -7.3062    2.4256    0.8011 C.ar    1  LIG1       -0.0533
     22 H          -6.7627    0.3785    1.1829 H       1  LIG1        0.0625
     23 N          -2.8384    2.7324   -2.1452 N.1     1  LIG1       -0.1908
     24 C          -3.7712    2.6407   -1.4823 C.1     1  LIG1        0.0998
     25 H          -8.2173    2.3751    1.3840 H       1  LIG1        0.0624
     26 C          -7.3050    6.0974    0.4579 C.ar    1  LIG1       -0.0531
     27 C          -8.1390    7.2030    0.5620 C.ar    1  LIG1       -0.0469
     28 C          -7.8469    4.8229    0.2707 C.ar    1  LIG1       -0.0144
     29 C          -9.5266    7.0643    0.4771 C.ar    1  LIG1        0.0601
     30 H          -7.7209    8.1865    0.7310 H       1  LIG1        0.0626
     31 C          -9.2316    4.6804    0.1726 C.ar    1  LIG1       -0.0115
     32 C         -10.0673    5.7863    0.2705 C.ar    1  LIG1        0.1313
     33 H          -9.6896    3.7168   -0.0097 H       1  LIG1        0.0660
     34 H          -6.2347    6.2186    0.5611 H       1  LIG1        0.0624
     35 O         -11.4137    5.5820    0.1571 O.3     1  LIG1       -0.4944
     36 C         -11.9889    6.0803   -1.0504 C.3     1  LIG1        0.0788
     37 H         -13.0457    5.8316   -1.0042 H       1  LIG1        0.0660
     38 H         -11.8662    7.1635   -1.1247 H       1  LIG1        0.0660
     39 H         -11.5230    5.5945   -1.9103 H       1  LIG1        0.0660
     40 C         -10.3881    8.2506    0.5963 C.ar    1  LIG1        0.1538
     41 C         -10.2395    9.5338    0.1430 C.ar    1  LIG1        0.0733
     42 C         -11.4286   10.2541    0.5435 C.ar    1  LIG1        0.0033
     43 C         -12.1819    9.3414    1.1990 C.ar    1  LIG1        0.0967
     44 O         -11.5651    8.1389    1.2366 O.2     1  LIG1       -0.4613
     45 H         -13.1419    9.4008    1.6813 H       1  LIG1        0.1032
     46 C          -9.1483   10.0717   -0.6127 C.1     1  LIG1       -0.0656
     47 C          -8.2454   10.5487   -1.2480 C.1     1  LIG1       -0.1138
     48 H          -7.4462   10.9644   -1.8172 H       1  LIG1        0.1232
     49 C         -11.7215   11.7026    0.2624 C.3     1  LIG1       -0.0355
     50 H         -12.6820   11.9843    0.6919 H       1  LIG1        0.0279
     51 H         -11.7468   11.8777   -0.8136 H       1  LIG1        0.0279
     52 H         -10.9411   12.3313    0.6919 H       1  LIG1        0.0279
@<TRIPOS>BOND
     1    23    24    3
     2    39    36    1
     3    48    47    1
     4    24    15    1
     5    47    46    3
     6    38    36    1
     7    19    16    1
     8    10     9    1
     9    36    37    1
    10    36    35    1
    11     9     1    1
    12    51    49    1
    13    15    16   ar
    14    15    17   ar
    15    46    41    1
    16     1     6   ar
    17     1     2   ar
    18    16    18   ar
    19     6     5   ar
    20     8     2    1
    21     2     3   ar
    22     5    17    1
    23     5     4   ar
    24    33    31    1
    25    17    20   ar
    26    13    11    1
    27     3     4   ar
    28     3     7    1
    29    41    42   ar
    30    41    40   ar
    31    35    32    1
    32    18    28    1
    33    18    21   ar
    34    31    32   ar
    35    31    28   ar
    36    49    42    1
    37    49    52    1
    38    49    50    1
    39    32    29   ar
    40    28    26   ar
    41     4    11    1
    42    26    34    1
    43    26    27   ar
    44    29    27   ar
    45    29    40    1
    46    42    43   ar
    47    27    30    1
    48    40    44   ar
    49    20    21   ar
    50    20    22    1
    51    21    25    1
    52    11    12    1
    53    11    14    1
    54    43    44   ar
    55    43    45    1
