@<TRIPOS>MOLECULE
mol_data/opt/m06hf/geoms/mol2/6fi6fi6fi-6fi.out
 54 57 0 0 0
SMALL
GASTEIGER

@<TRIPOS>ATOM
      1 C          -4.4384   -2.1558   -0.9312 C.ar    1  LIG1        0.2128
      2 C          -3.1803   -2.3805   -0.3650 C.ar    1  LIG1        0.0001
      3 C          -2.6130   -1.3312    0.3344 C.ar    1  LIG1       -0.0518
      4 C          -3.2384   -0.0845    0.4397 C.ar    1  LIG1       -0.0241
      5 C          -4.4641    0.0543   -0.2295 C.ar    1  LIG1        0.0828
      6 N          -5.0355   -0.9855   -0.8616 N.ar    1  LIG1       -0.2126
      7 H          -1.6606   -1.4809    0.8296 H       1  LIG1        0.0622
      8 H          -2.6928   -3.3429   -0.4427 H       1  LIG1        0.0671
      9 O          -5.1348   -3.1088   -1.5812 O.3     1  LIG1       -0.4924
     10 H          -4.6612   -3.9470   -1.5776 H       1  LIG1        0.2937
     11 C          -2.5983    0.9824    1.3108 C.3     1  LIG1       -0.0377
     12 H          -3.3588    1.5913    1.7985 H       1  LIG1        0.0278
     13 H          -1.9404    1.6345    0.7325 H       1  LIG1        0.0278
     14 H          -1.9973    0.4965    2.0793 H       1  LIG1        0.0278
     15 C          -6.6782    1.2704   -0.3975 C.ar    1  LIG1        0.2223
     16 C          -5.2608    1.3122   -0.2805 C.ar    1  LIG1        0.0623
     17 C          -4.6815    2.5737   -0.2324 C.ar    1  LIG1       -0.0425
     18 C          -5.4424    3.7427   -0.2263 C.ar    1  LIG1       -0.0234
     19 C          -6.8275    3.5636   -0.2888 C.ar    1  LIG1        0.0828
     20 N          -7.4133    2.3676   -0.3646 N.ar    1  LIG1       -0.2120
     21 H          -3.6033    2.6629   -0.2045 H       1  LIG1        0.0629
     22 O          -7.3400    0.1268   -0.5432 O.3     1  LIG1       -0.4919
     23 H          -6.6800   -0.5670   -0.7956 H       1  LIG1        0.2937
     24 C          -4.7672    5.0941   -0.1050 C.3     1  LIG1       -0.0377
     25 H          -5.3995    5.7878    0.4506 H       1  LIG1        0.0278
     26 H          -4.5805    5.5199   -1.0901 H       1  LIG1        0.0278
     27 H          -3.8224    4.9829    0.4281 H       1  LIG1        0.0278
     28 C          -7.7415    5.8231   -1.0684 C.ar    1  LIG1        0.2223
     29 C          -7.7928    4.7032   -0.2237 C.ar    1  LIG1        0.0623
     30 C          -8.8583    4.6524    0.6615 C.ar    1  LIG1       -0.0425
     31 C          -9.8012    5.6831    0.7380 C.ar    1  LIG1       -0.0234
     32 C          -9.6315    6.7461   -0.1562 C.ar    1  LIG1        0.0828
     33 N          -8.6198    6.8050   -1.0313 N.ar    1  LIG1       -0.2120
     34 H          -8.9442    3.7849    1.3057 H       1  LIG1        0.0629
     35 O          -6.7736    5.9081   -2.0027 O.3     1  LIG1       -0.4919
     36 H          -6.9457    6.7099   -2.5158 H       1  LIG1        0.2937
     37 C         -10.9105    5.6600    1.7758 C.3     1  LIG1       -0.0377
     38 H         -10.6843    4.9105    2.5330 H       1  LIG1        0.0278
     39 H         -11.8761    5.4256    1.3254 H       1  LIG1        0.0278
     40 H         -10.9921    6.6360    2.2559 H       1  LIG1        0.0278
     41 C         -11.9475    7.7111   -0.4735 C.ar    1  LIG1        0.2217
     42 C         -10.5828    7.8980   -0.1805 C.ar    1  LIG1        0.0623
     43 C         -10.1512    9.1944    0.0533 C.ar    1  LIG1       -0.0431
     44 C         -11.0594   10.2544    0.0474 C.ar    1  LIG1       -0.0315
     45 C         -12.3866    9.9266   -0.2110 C.ar    1  LIG1        0.0343
     46 N         -12.8225    8.6951   -0.4757 N.ar    1  LIG1       -0.2206
     47 H          -9.0982    9.3672    0.2475 H       1  LIG1        0.0629
     48 H         -13.1448   10.7024   -0.2162 H       1  LIG1        0.0833
     49 O         -12.4421    6.4915   -0.7835 O.3     1  LIG1       -0.4919
     50 H         -11.7186    5.8654   -0.9168 H       1  LIG1        0.2937
     51 C         -10.6241   11.6822    0.3090 C.3     1  LIG1       -0.0383
     52 H         -11.4863   12.3487    0.2999 H       1  LIG1        0.0278
     53 H          -9.9228   12.0137   -0.4582 H       1  LIG1        0.0278
     54 H         -10.1354   11.7615    1.2810 H       1  LIG1        0.0278
@<TRIPOS>BOND
     1    36    35    1
     2    35    28    1
     3     9    10    1
     4     9     1    1
     5    26    24    1
     6    28    33   ar
     7    28    29   ar
     8    33    32   ar
     9     1     6   ar
    10     1     2   ar
    11    50    49    1
    12     6     5   ar
    13    23    22    1
    14    49    41    1
    15    22    15    1
    16    46    41   ar
    17    46    45   ar
    18    41    42   ar
    19    53    51    1
    20     8     2    1
    21    15    20   ar
    22    15    16   ar
    23     2     3   ar
    24    20    19   ar
    25    19    18   ar
    26    19    29    1
    27    16    17   ar
    28    16     5    1
    29    17    18   ar
    30    17    21    1
    31     5     4   ar
    32    18    24    1
    33    29    30   ar
    34    48    45    1
    35    45    44   ar
    36    42    32    1
    37    42    43   ar
    38    32    31   ar
    39    24    27    1
    40    24    25    1
    41    44    43   ar
    42    44    51    1
    43    43    47    1
    44    52    51    1
    45    51    54    1
    46     3     4   ar
    47     3     7    1
    48     4    11    1
    49    30    31   ar
    50    30    34    1
    51    13    11    1
    52    31    37    1
    53    11    12    1
    54    11    14    1
    55    39    37    1
    56    37    40    1
    57    37    38    1
