@<TRIPOS>MOLECULE
mol_data/opt/m06hf/geoms/mol2/6fi6fi.out
 28 29 0 0 0
SMALL
GASTEIGER

@<TRIPOS>ATOM
      1 C          -4.5440   -2.0867   -0.3860 C.ar    1  LIG1        0.2128
      2 C          -3.1512   -2.1506   -0.2847 C.ar    1  LIG1        0.0001
      3 C          -2.4914   -0.9735    0.0174 C.ar    1  LIG1       -0.0518
      4 C          -3.1715    0.2383    0.1725 C.ar    1  LIG1       -0.0241
      5 C          -4.5605    0.2019   -0.0246 C.ar    1  LIG1        0.0828
      6 N          -5.2025   -0.9541   -0.2649 N.ar    1  LIG1       -0.2126
      7 H          -1.4164   -0.9908    0.1545 H       1  LIG1        0.0622
      8 H          -2.6204   -3.0855   -0.4039 H       1  LIG1        0.0671
      9 O          -5.3149   -3.1706   -0.6062 O.3     1  LIG1       -0.4924
     10 H          -4.7814   -3.9714   -0.6416 H       1  LIG1        0.2937
     11 C          -2.3897    1.4662    0.6071 C.3     1  LIG1       -0.0377
     12 H          -3.0011    2.1101    1.2384 H       1  LIG1        0.0278
     13 H          -2.0380    2.0443   -0.2499 H       1  LIG1        0.0278
     14 H          -1.5175    1.1463    1.1771 H       1  LIG1        0.0278
     15 C          -6.7939    1.2727    0.5023 C.ar    1  LIG1        0.2217
     16 C          -5.4477    1.3958    0.0561 C.ar    1  LIG1        0.0623
     17 C          -5.0222    2.6666   -0.3144 C.ar    1  LIG1       -0.0431
     18 C          -5.8492    3.7785   -0.1646 C.ar    1  LIG1       -0.0315
     19 C          -7.1072    3.5334    0.3760 C.ar    1  LIG1        0.0343
     20 N          -7.5715    2.3268    0.6860 N.ar    1  LIG1       -0.2206
     21 H          -4.0363    2.7959   -0.7435 H       1  LIG1        0.0629
     22 H          -7.7897    4.3584    0.5533 H       1  LIG1        0.0833
     23 O          -7.3410    0.0883    0.7635 O.3     1  LIG1       -0.4919
     24 H          -6.7608   -0.6042    0.3647 H       1  LIG1        0.2937
     25 C          -5.4041    5.1690   -0.5711 C.3     1  LIG1       -0.0383
     26 H          -6.1513    5.9056   -0.2763 H       1  LIG1        0.0278
     27 H          -5.2703    5.2289   -1.6525 H       1  LIG1        0.0278
     28 H          -4.4584    5.4272   -0.0923 H       1  LIG1        0.0278
@<TRIPOS>BOND
     1    27    25    1
     2    21    17    1
     3    10     9    1
     4     9     1    1
     5    25    26    1
     6    25    18    1
     7    25    28    1
     8     8     2    1
     9     1     2   ar
    10     1     6   ar
    11    17    18   ar
    12    17    16   ar
    13     2     3   ar
    14     6     5   ar
    15    13    11    1
    16    18    19   ar
    17     5    16    1
    18     5     4   ar
    19     3     7    1
    20     3     4   ar
    21    16    15   ar
    22     4    11    1
    23    24    23    1
    24    19    22    1
    25    19    20   ar
    26    15    20   ar
    27    15    23    1
    28    11    14    1
    29    11    12    1
