@<TRIPOS>MOLECULE
mol_data/opt/m06hf/geoms/mol2/6fi6fi6fi-6fi-.out
 54 57 0 0 0
SMALL
GASTEIGER

@<TRIPOS>ATOM
      1 C          -4.4286   -2.1275   -0.9720 C.ar    1  LIG1        0.2128
      2 C          -3.1626   -2.3462   -0.4220 C.ar    1  LIG1        0.0001
      3 C          -2.5977   -1.2986    0.2823 C.ar    1  LIG1       -0.0518
      4 C          -3.2334   -0.0592    0.4060 C.ar    1  LIG1       -0.0241
      5 C          -4.4671    0.0754   -0.2499 C.ar    1  LIG1        0.0828
      6 N          -5.0363   -0.9639   -0.8852 N.ar    1  LIG1       -0.2126
      7 H          -1.6388   -1.4443    0.7662 H       1  LIG1        0.0622
      8 H          -2.6669   -3.3031   -0.5149 H       1  LIG1        0.0671
      9 O          -5.1226   -3.0816   -1.6243 O.3     1  LIG1       -0.4924
     10 H          -4.6399   -3.9145   -1.6329 H       1  LIG1        0.2937
     11 C          -2.5954    1.0055    1.2815 C.3     1  LIG1       -0.0377
     12 H          -3.3575    1.6060    1.7769 H       1  LIG1        0.0278
     13 H          -1.9449    1.6661    0.7045 H       1  LIG1        0.0278
     14 H          -1.9872    0.5179    2.0434 H       1  LIG1        0.0278
     15 C          -6.6899    1.2798   -0.3786 C.ar    1  LIG1        0.2223
     16 C          -5.2720    1.3280   -0.2823 C.ar    1  LIG1        0.0623
     17 C          -4.6984    2.5928   -0.2363 C.ar    1  LIG1       -0.0425
     18 C          -5.4651    3.7569   -0.2135 C.ar    1  LIG1       -0.0234
     19 C          -6.8514    3.5716   -0.2563 C.ar    1  LIG1        0.0828
     20 N          -7.4309    2.3722   -0.3296 N.ar    1  LIG1       -0.2120
     21 H          -3.6203    2.6874   -0.2235 H       1  LIG1        0.0629
     22 O          -7.3476    0.1316   -0.5199 O.3     1  LIG1       -0.4919
     23 H          -6.6881   -0.5553   -0.7885 H       1  LIG1        0.2937
     24 C          -4.7965    5.1117   -0.0945 C.3     1  LIG1       -0.0377
     25 H          -5.4236    5.7970    0.4772 H       1  LIG1        0.0278
     26 H          -4.6324    5.5459   -1.0799 H       1  LIG1        0.0278
     27 H          -3.8408    5.0028    0.4196 H       1  LIG1        0.0278
     28 C          -7.7738    5.8386   -0.9996 C.ar    1  LIG1        0.2223
     29 C          -7.8151    4.7098   -0.1670 C.ar    1  LIG1        0.0623
     30 C          -8.8637    4.6573    0.7380 C.ar    1  LIG1       -0.0425
     31 C          -9.7887    5.6992    0.8514 C.ar    1  LIG1       -0.0234
     32 C          -9.6151    6.7785   -0.0165 C.ar    1  LIG1        0.0828
     33 N          -8.6330    6.8324   -0.9218 N.ar    1  LIG1       -0.2120
     34 H          -8.9487    3.7794    1.3684 H       1  LIG1        0.0629
     35 O          -6.8315    5.9246   -1.9622 O.3     1  LIG1       -0.4919
     36 H          -6.9890    6.7576   -2.4279 H       1  LIG1        0.2937
     37 C         -10.9001    5.6383    1.8834 C.3     1  LIG1       -0.0377
     38 H         -10.5774    5.0353    2.7319 H       1  LIG1        0.0278
     39 H         -11.7980    5.1812    1.4630 H       1  LIG1        0.0278
     40 H         -11.1541    6.6375    2.2355 H       1  LIG1        0.0278
     41 C         -10.0820    9.2465    0.2601 C.ar    1  LIG1        0.2217
     42 C         -10.5477    7.9465   -0.0110 C.ar    1  LIG1        0.0623
     43 C         -11.8957    7.8159   -0.2953 C.ar    1  LIG1       -0.0431
     44 C         -12.7420    8.9324   -0.3147 C.ar    1  LIG1       -0.0315
     45 C         -12.1533   10.1565   -0.0377 C.ar    1  LIG1        0.0343
     46 N         -10.8560   10.3119    0.2466 N.ar    1  LIG1       -0.2206
     47 H         -12.2924    6.8314   -0.5213 H       1  LIG1        0.0629
     48 H         -12.7465   11.0644   -0.0420 H       1  LIG1        0.0833
     49 O          -8.7850    9.4258    0.5676 O.3     1  LIG1       -0.4919
     50 H          -8.6600   10.3741    0.7079 H       1  LIG1        0.2937
     51 C         -14.2175    8.8050   -0.6355 C.3     1  LIG1       -0.0383
     52 H         -14.7098    8.1474    0.0824 H       1  LIG1        0.0278
     53 H         -14.3560    8.3895   -1.6345 H       1  LIG1        0.0278
     54 H         -14.6998    9.7815   -0.5971 H       1  LIG1        0.0278
@<TRIPOS>BOND
     1    36    35    1
     2    35    28    1
     3    53    51    1
     4    10     9    1
     5     9     1    1
     6    26    24    1
     7    28    33   ar
     8    28    29   ar
     9     1     6   ar
    10     1     2   ar
    11    33    32   ar
    12     6     5   ar
    13    23    22    1
    14    51    54    1
    15    51    44    1
    16    51    52    1
    17    47    43    1
    18    22    15    1
    19     8     2    1
    20     2     3   ar
    21    15    20   ar
    22    15    16   ar
    23    20    19   ar
    24    44    43   ar
    25    44    45   ar
    26    43    42   ar
    27    16     5    1
    28    16    17   ar
    29    19    18   ar
    30    19    29    1
    31     5     4   ar
    32    17    21    1
    33    17    18   ar
    34    18    24    1
    35    29    30   ar
    36    24    27    1
    37    24    25    1
    38    48    45    1
    39    45    46   ar
    40    32    42    1
    41    32    31   ar
    42    42    41   ar
    43    46    41   ar
    44    41    49    1
    45     3     4   ar
    46     3     7    1
    47     4    11    1
    48    49    50    1
    49    13    11    1
    50    30    31   ar
    51    30    34    1
    52    31    37    1
    53    11    12    1
    54    11    14    1
    55    39    37    1
    56    37    40    1
    57    37    38    1
