@<TRIPOS>MOLECULE
mol_data/opt/m06hf/geoms/mol2/6fi6fi-4fi6fi.out
 55 58 0 0 0
SMALL
GASTEIGER

@<TRIPOS>ATOM
      1 C           6.9103    1.2738    0.2033 C.ar    1  LIG1        0.2128
      2 C           7.7689    0.1803    0.0386 C.ar    1  LIG1        0.0001
      3 C           7.1896   -1.0527   -0.2000 C.ar    1  LIG1       -0.0518
      4 C           5.8008   -1.2011   -0.2503 C.ar    1  LIG1       -0.0241
      5 C           5.0522   -0.0396   -0.0333 C.ar    1  LIG1        0.0828
      6 N           5.6001    1.1646    0.1655 N.ar    1  LIG1       -0.2126
      7 H           7.8211   -1.9188   -0.3619 H       1  LIG1        0.0622
      8 H           8.8437    0.3019    0.0802 H       1  LIG1        0.0671
      9 O           7.3750    2.5283    0.4124 O.3     1  LIG1       -0.4924
     10 H           8.3373    2.5328    0.4298 H       1  LIG1        0.2937
     11 C           5.1816   -2.5478   -0.5656 C.3     1  LIG1       -0.0377
     12 H           4.2503   -2.4200   -1.1185 H       1  LIG1        0.0278
     13 H           4.9592   -3.0864    0.3545 H       1  LIG1        0.0278
     14 H           5.8723   -3.1330   -1.1731 H       1  LIG1        0.0278
     15 C           2.7539   -0.8809    0.6955 C.ar    1  LIG1        0.2223
     16 C           3.5588   -0.0269   -0.0733 C.ar    1  LIG1        0.0623
     17 C           2.8919    0.9111   -0.8469 C.ar    1  LIG1       -0.0425
     18 C           1.4966    0.9634   -0.8911 C.ar    1  LIG1       -0.0235
     19 C           0.8161    0.0404   -0.0957 C.ar    1  LIG1        0.0812
     20 N           1.4370   -0.8526    0.6793 N.ar    1  LIG1       -0.2121
     21 H           3.4850    1.6103   -1.4251 H       1  LIG1        0.0629
     22 O           3.3338   -1.7716    1.5277 O.3     1  LIG1       -0.4919
     23 H           2.6154   -2.2306    1.9849 H       1  LIG1        0.2937
     24 C           0.7760    1.9674   -1.7713 C.3     1  LIG1       -0.0377
     25 H           1.4344    2.2854   -2.5792 H       1  LIG1        0.0278
     26 H           0.4841    2.8503   -1.1996 H       1  LIG1        0.0278
     27 H          -0.1233    1.5250   -2.1990 H       1  LIG1        0.0278
     28 C          -1.3871   -1.0575   -0.5929 C.ar    1  LIG1        0.1266
     29 C          -2.7779   -1.0683   -0.5380 C.ar    1  LIG1       -0.0114
     30 C          -0.6811    0.0204   -0.0512 C.ar    1  LIG1        0.0424
     31 C          -3.4740   -0.0080    0.0458 C.ar    1  LIG1       -0.0064
     32 H          -3.3344   -1.9062   -0.9446 H       1  LIG1        0.0660
     33 C          -1.3897    1.0707    0.5231 C.ar    1  LIG1       -0.0456
     34 C          -2.7843    1.0875    0.5870 C.ar    1  LIG1       -0.0417
     35 H          -0.8290    1.9020    0.9364 H       1  LIG1        0.0628
     36 O          -0.6717   -2.0567   -1.1692 O.3     1  LIG1       -0.5061
     37 H          -1.2556   -2.7523   -1.4890 H       1  LIG1        0.2922
     38 C          -3.5255    2.2653    1.1975 C.3     1  LIG1       -0.0391
     39 H          -2.8251    3.0690    1.4213 H       1  LIG1        0.0278
     40 H          -4.0312    1.9732    2.1201 H       1  LIG1        0.0278
     41 H          -4.2801    2.6356    0.5021 H       1  LIG1        0.0278
     42 C          -5.6318   -0.2161    1.3273 C.ar    1  LIG1        0.2202
     43 C          -4.9673   -0.0590    0.0930 C.ar    1  LIG1        0.0441
     44 C          -5.7539    0.0335   -1.0441 C.ar    1  LIG1       -0.0446
     45 C          -7.1481   -0.0096   -0.9488 C.ar    1  LIG1       -0.0315
     46 C          -7.6739   -0.1508    0.3298 C.ar    1  LIG1        0.0343
     47 N          -6.9419   -0.2566    1.4407 N.ar    1  LIG1       -0.2207
     48 H          -5.2716    0.1528   -2.0088 H       1  LIG1        0.0628
     49 H          -8.7485   -0.1862    0.4732 H       1  LIG1        0.0833
     50 O          -4.9366   -0.3350    2.4791 O.3     1  LIG1       -0.4920
     51 H          -3.9924   -0.4041    2.2830 H       1  LIG1        0.2937
     52 C          -8.0365    0.1053   -2.1715 C.3     1  LIG1       -0.0383
     53 H          -9.0817   -0.0269   -1.8932 H       1  LIG1        0.0278
     54 H          -7.7755   -0.6564   -2.9076 H       1  LIG1        0.0278
     55 H          -7.9233    1.0860   -2.6361 H       1  LIG1        0.0278
@<TRIPOS>BOND
     1    54    52    1
     2    55    52    1
     3    25    24    1
     4    27    24    1
     5    52    53    1
     6    52    45    1
     7    48    44    1
     8    24    26    1
     9    24    18    1
    10    37    36    1
    11    21    17    1
    12    14    11    1
    13    36    28    1
    14    12    11    1
    15    44    45   ar
    16    44    43   ar
    17    45    46   ar
    18    32    29    1
    19    18    17   ar
    20    18    19   ar
    21    17    16   ar
    22    28    29   ar
    23    28    30   ar
    24    11     4    1
    25    11    13    1
    26    29    31   ar
    27     7     3    1
    28     4     3   ar
    29     4     5   ar
    30     3     2   ar
    31    19    30    1
    32    19    20   ar
    33    16     5    1
    34    16    15   ar
    35    30    33   ar
    36     5     6   ar
    37     2     8    1
    38     2     1   ar
    39    31    43    1
    40    31    34   ar
    41    43    42   ar
    42     6     1   ar
    43     1     9    1
    44    46    49    1
    45    46    47   ar
    46     9    10    1
    47    41    38    1
    48    33    34   ar
    49    33    35    1
    50    34    38    1
    51    20    15   ar
    52    15    22    1
    53    38    39    1
    54    38    40    1
    55    42    47   ar
    56    42    50    1
    57    22    23    1
    58    51    50    1
