@<TRIPOS>MOLECULE
mol_data/opt/m06hf/geoms/mol2/6fi6fi6fi6fi.out
 54 57 0 0 0
SMALL
GASTEIGER

@<TRIPOS>ATOM
      1 C          -4.5200   -2.2585   -0.3089 C.ar    1  LIG1        0.2128
      2 C          -3.1413   -2.3774   -0.1084 C.ar    1  LIG1        0.0001
      3 C          -2.4446   -1.2155    0.1659 C.ar    1  LIG1       -0.0518
      4 C          -3.0711    0.0354    0.2030 C.ar    1  LIG1       -0.0241
      5 C          -4.4436    0.0488   -0.0819 C.ar    1  LIG1        0.0828
      6 N          -5.1257   -1.0902   -0.2967 N.ar    1  LIG1       -0.2126
      7 H          -1.3826   -1.2736    0.3738 H       1  LIG1        0.0622
      8 H          -2.6519   -3.3415   -0.1349 H       1  LIG1        0.0671
      9 O          -5.3287   -3.3125   -0.5215 O.3     1  LIG1       -0.4924
     10 H          -4.8388   -4.1410   -0.4932 H       1  LIG1        0.2937
     11 C          -2.2550    1.2509    0.6073 C.3     1  LIG1       -0.0377
     12 H          -2.8622    1.9546    1.1760 H       1  LIG1        0.0278
     13 H          -1.8390    1.7637   -0.2626 H       1  LIG1        0.0278
     14 H          -1.4246    0.9253    1.2334 H       1  LIG1        0.0278
     15 C          -6.6785    1.2099    0.1138 C.ar    1  LIG1        0.2223
     16 C          -5.2817    1.2775   -0.1368 C.ar    1  LIG1        0.0623
     17 C          -4.7912    2.5241   -0.5037 C.ar    1  LIG1       -0.0425
     18 C          -5.5733    3.6807   -0.5032 C.ar    1  LIG1       -0.0234
     19 C          -6.9020    3.5234   -0.0834 C.ar    1  LIG1        0.0828
     20 N          -7.4122    2.3072    0.1650 N.ar    1  LIG1       -0.2120
     21 H          -3.7653    2.6065   -0.8393 H       1  LIG1        0.0629
     22 O          -7.3198    0.0697    0.2996 O.3     1  LIG1       -0.4919
     23 H          -6.6931   -0.6648    0.0473 H       1  LIG1        0.2937
     24 C          -4.9726    4.9774   -1.0175 C.3     1  LIG1       -0.0377
     25 H          -4.5272    5.5675   -0.2135 H       1  LIG1        0.0278
     26 H          -5.7294    5.5807   -1.5182 H       1  LIG1        0.0278
     27 H          -4.1871    4.7427   -1.7362 H       1  LIG1        0.0278
     28 C          -9.2727    4.3931   -0.0267 C.ar    1  LIG1        0.2223
     29 C          -7.8749    4.6360    0.0661 C.ar    1  LIG1        0.0623
     30 C          -7.5053    5.9381    0.3802 C.ar    1  LIG1       -0.0425
     31 C          -8.4195    6.9877    0.4696 C.ar    1  LIG1       -0.0234
     32 C          -9.7568    6.6642    0.1924 C.ar    1  LIG1        0.0828
     33 N         -10.1377    5.3928    0.0015 N.ar    1  LIG1       -0.2120
     34 H          -6.4665    6.1479    0.6015 H       1  LIG1        0.0629
     35 O          -9.7818    3.1807   -0.1364 O.3     1  LIG1       -0.4919
     36 H          -9.0343    2.5309    0.0161 H       1  LIG1        0.2937
     37 C          -7.9291    8.3500    0.9299 C.3     1  LIG1       -0.0377
     38 H          -8.7056    8.8700    1.4899 H       1  LIG1        0.0278
     39 H          -7.6204    8.9784    0.0916 H       1  LIG1        0.0278
     40 H          -7.0661    8.2117    1.5818 H       1  LIG1        0.0278
     41 C         -12.2010    7.2727    0.4556 C.ar    1  LIG1        0.2217
     42 C         -10.8645    7.6566    0.1411 C.ar    1  LIG1        0.0623
     43 C         -10.6619    8.9779   -0.2409 C.ar    1  LIG1       -0.0431
     44 C         -11.7038    9.9029   -0.2289 C.ar    1  LIG1       -0.0315
     45 C         -12.9399    9.4209    0.1914 C.ar    1  LIG1        0.0343
     46 N         -13.1879    8.1548    0.5098 N.ar    1  LIG1       -0.2206
     47 H          -9.6797    9.2921   -0.5718 H       1  LIG1        0.0629
     48 H         -13.7878   10.0959    0.2582 H       1  LIG1        0.0833
     49 O         -12.5244    6.0125    0.7109 O.3     1  LIG1       -0.4919
     50 H         -11.7538    5.4450    0.4376 H       1  LIG1        0.2937
     51 C         -11.5040   11.3435   -0.6542 C.3     1  LIG1       -0.0383
     52 H         -12.4042   11.9242   -0.4537 H       1  LIG1        0.0278
     53 H         -11.2876   11.4031   -1.7223 H       1  LIG1        0.0278
     54 H         -10.6740   11.7965   -0.1096 H       1  LIG1        0.0278
@<TRIPOS>BOND
     1    27    24    1
     2    53    51    1
     3    26    24    1
     4    24    18    1
     5    24    25    1
     6    21    17    1
     7    51    52    1
     8    51    44    1
     9    51    54    1
    10    47    43    1
    11     9    10    1
    12     9     1    1
    13    17    18   ar
    14    17    16   ar
    15    18    19   ar
    16     1     6   ar
    17     1     2   ar
    18     6     5   ar
    19    13    11    1
    20    43    44   ar
    21    43    42   ar
    22    44    45   ar
    23    16     5    1
    24    16    15   ar
    25    35    28    1
    26    35    36    1
    27     8     2    1
    28     2     3   ar
    29    19    29    1
    30    19    20   ar
    31     5     4   ar
    32    28    33   ar
    33    28    29   ar
    34    33    32   ar
    35    23    22    1
    36    29    30   ar
    37    39    37    1
    38    15    20   ar
    39    15    22    1
    40    42    32    1
    41    42    41   ar
    42     3     4   ar
    43     3     7    1
    44    45    48    1
    45    45    46   ar
    46    32    31   ar
    47     4    11    1
    48    30    31   ar
    49    30    34    1
    50    50    49    1
    51    41    46   ar
    52    41    49    1
    53    31    37    1
    54    11    12    1
    55    11    14    1
    56    37    38    1
    57    37    40    1
