@<TRIPOS>MOLECULE
mol_data/opt/m06hf/geoms/mol2/6fi6fi-6fi-6fi-.out
 54 57 0 0 0
SMALL
GASTEIGER

@<TRIPOS>ATOM
      1 C          -4.4830   -2.2360   -0.2599 C.ar    1  LIG1        0.2128
      2 C          -3.0987   -2.3018   -0.4598 C.ar    1  LIG1        0.0001
      3 C          -2.4103   -1.1049   -0.5414 C.ar    1  LIG1       -0.0518
      4 C          -3.0779    0.1194   -0.4505 C.ar    1  LIG1       -0.0241
      5 C          -4.4665    0.0507   -0.2917 C.ar    1  LIG1        0.0828
      6 N          -5.1401   -1.0993   -0.1785 N.ar    1  LIG1       -0.2126
      7 H          -1.3336   -1.1130   -0.6651 H       1  LIG1        0.0622
      8 H          -2.5879   -3.2537   -0.5296 H       1  LIG1        0.0671
      9 O          -5.2436   -3.3494   -0.1306 O.3     1  LIG1       -0.4924
     10 H          -4.6980   -4.1391   -0.2022 H       1  LIG1        0.2937
     11 C          -2.3036    1.4218   -0.4802 C.3     1  LIG1       -0.0377
     12 H          -2.7969    2.1735    0.1370 H       1  LIG1        0.0278
     13 H          -2.2436    1.8045   -1.4984 H       1  LIG1        0.0278
     14 H          -1.2978    1.2558   -0.0933 H       1  LIG1        0.0278
     15 C          -5.3014    2.3296   -1.0812 C.ar    1  LIG1        0.2223
     16 C          -5.3145    1.2728   -0.1584 C.ar    1  LIG1        0.0623
     17 C          -6.2157    1.3868    0.8890 C.ar    1  LIG1       -0.0425
     18 C          -7.0205    2.5189    1.0435 C.ar    1  LIG1       -0.0234
     19 C          -6.8838    3.5124    0.0723 C.ar    1  LIG1        0.0828
     20 N          -6.0497    3.4065   -0.9661 N.ar    1  LIG1       -0.2120
     21 H          -6.2772    0.5708    1.6000 H       1  LIG1        0.0629
     22 O          -4.5069    2.2551   -2.1699 O.3     1  LIG1       -0.4919
     23 H          -4.6651    3.0611   -2.6807 H       1  LIG1        0.2937
     24 C          -7.9664    2.6517    2.2227 C.3     1  LIG1       -0.0377
     25 H          -7.6311    2.0077    3.0352 H       1  LIG1        0.0278
     26 H          -8.9800    2.3536    1.9482 H       1  LIG1        0.0278
     27 H          -7.9961    3.6820    2.5763 H       1  LIG1        0.0278
     28 C          -7.0671    6.0203    0.3068 C.ar    1  LIG1        0.2223
     29 C          -7.6881    4.7709    0.1300 C.ar    1  LIG1        0.0623
     30 C          -9.0657    4.7796    0.0140 C.ar    1  LIG1       -0.0425
     31 C          -9.7982    5.9737    0.0601 C.ar    1  LIG1       -0.0234
     32 C          -9.0602    7.1447    0.2218 C.ar    1  LIG1        0.0828
     33 N          -7.7270    7.1566    0.3466 N.ar    1  LIG1       -0.2120
     34 H          -9.5865    3.8371   -0.1180 H       1  LIG1        0.0629
     35 O          -5.7323    6.0722    0.4621 O.3     1  LIG1       -0.4919
     36 H          -5.5023    7.0020    0.5933 H       1  LIG1        0.2937
     37 C         -11.3121    5.9551   -0.0472 C.3     1  LIG1       -0.0377
     38 H         -11.6979    5.0247    0.3694 H       1  LIG1        0.0278
     39 H         -11.6315    6.0194   -1.0895 H       1  LIG1        0.0278
     40 H         -11.7463    6.7921    0.4980 H       1  LIG1        0.0278
     41 C          -9.6020    9.3237    1.3794 C.ar    1  LIG1        0.2217
     42 C          -9.7163    8.4872    0.2532 C.ar    1  LIG1        0.0623
     43 C         -10.4379    8.9823   -0.8186 C.ar    1  LIG1       -0.0431
     44 C         -11.0126   10.2596   -0.7747 C.ar    1  LIG1       -0.0315
     45 C         -10.8160   10.9837    0.3908 C.ar    1  LIG1        0.0343
     46 N         -10.1311   10.5279    1.4449 N.ar    1  LIG1       -0.2206
     47 H         -10.5422    8.3719   -1.7097 H       1  LIG1        0.0629
     48 H         -11.2271   11.9819    0.4931 H       1  LIG1        0.0833
     49 O          -8.9376    8.8773    2.4594 O.3     1  LIG1       -0.4919
     50 H          -8.9647    9.5843    3.1179 H       1  LIG1        0.2937
     51 C         -11.7954   10.8200   -1.9450 C.3     1  LIG1       -0.0383
     52 H         -12.6433   10.1758   -2.1821 H       1  LIG1        0.0278
     53 H         -11.1604   10.8929   -2.8293 H       1  LIG1        0.0278
     54 H         -12.1723   11.8143   -1.7075 H       1  LIG1        0.0278
@<TRIPOS>BOND
     1    53    51    1
     2    23    22    1
     3    52    51    1
     4    22    15    1
     5    51    54    1
     6    51    44    1
     7    47    43    1
     8    13    11    1
     9    39    37    1
    10    15    20   ar
    11    15    16   ar
    12    20    19   ar
    13    43    44   ar
    14    43    42   ar
    15    44    45   ar
    16     7     3    1
    17     3     2   ar
    18     3     4   ar
    19     8     2    1
    20    11     4    1
    21    11    14    1
    22    11    12    1
    23     2     1   ar
    24     4     5   ar
    25     5     6   ar
    26     5    16    1
    27     1     6   ar
    28     1     9    1
    29    10     9    1
    30    16    17   ar
    31    34    30    1
    32    37    31    1
    33    37    38    1
    34    37    40    1
    35    30    31   ar
    36    30    29   ar
    37    31    32   ar
    38    19    29    1
    39    19    18   ar
    40    29    28   ar
    41    32    42    1
    42    32    33   ar
    43    42    41   ar
    44    28    33   ar
    45    28    35    1
    46    45    48    1
    47    45    46   ar
    48    35    36    1
    49    17    18   ar
    50    17    21    1
    51    18    24    1
    52    41    46   ar
    53    41    49    1
    54    26    24    1
    55    24    27    1
    56    24    25    1
    57    49    50    1
