@<TRIPOS>MOLECULE
mol_data/opt/m06hf/geoms/mol2/6fi6fi-6fi6fi-.out
 54 57 0 0 0
SMALL
GASTEIGER

@<TRIPOS>ATOM
      1 C          -4.5455   -2.1753   -0.7363 C.ar    1  LIG1        0.2128
      2 C          -3.1954   -2.3593   -0.4125 C.ar    1  LIG1        0.0001
      3 C          -2.4903   -1.2543    0.0269 C.ar    1  LIG1       -0.0518
      4 C          -3.0982    0.0013    0.1218 C.ar    1  LIG1       -0.0241
      5 C          -4.4389    0.0625   -0.2723 C.ar    1  LIG1        0.0828
      6 N          -5.1412   -1.0049   -0.6681 N.ar    1  LIG1       -0.2126
      7 H          -1.4521   -1.3632    0.3179 H       1  LIG1        0.0622
      8 H          -2.7308   -3.3342   -0.4861 H       1  LIG1        0.0671
      9 O          -5.3346   -3.1986   -1.1381 O.3     1  LIG1       -0.4924
     10 H          -4.8339   -4.0200   -1.1706 H       1  LIG1        0.2937
     11 C          -2.3288    1.1845    0.6745 C.3     1  LIG1       -0.0377
     12 H          -3.0042    1.8771    1.1775 H       1  LIG1        0.0278
     13 H          -1.8266    1.7224   -0.1286 H       1  LIG1        0.0278
     14 H          -1.5899    0.8318    1.3945 H       1  LIG1        0.0278
     15 C          -4.8360    2.5366   -0.7854 C.ar    1  LIG1        0.2223
     16 C          -5.2422    1.3212   -0.2129 C.ar    1  LIG1        0.0623
     17 C          -6.4976    1.3116    0.3759 C.ar    1  LIG1       -0.0425
     18 C          -7.2904    2.4621    0.4379 C.ar    1  LIG1       -0.0234
     19 C          -6.7633    3.6115   -0.1633 C.ar    1  LIG1        0.0828
     20 N          -5.5628    3.6357   -0.7551 N.ar    1  LIG1       -0.2120
     21 H          -6.8535    0.3804    0.8017 H       1  LIG1        0.0629
     22 O          -3.6580    2.6066   -1.4365 O.3     1  LIG1       -0.4919
     23 H          -3.5907    3.5004   -1.7998 H       1  LIG1        0.2937
     24 C          -8.6167    2.4661    1.1790 C.3     1  LIG1       -0.0377
     25 H          -8.7060    1.5555    1.7697 H       1  LIG1        0.0278
     26 H          -9.4614    2.5243    0.4910 H       1  LIG1        0.0278
     27 H          -8.6658    3.3279    1.8459 H       1  LIG1        0.0278
     28 C          -8.7753    5.0181   -0.7795 C.ar    1  LIG1        0.2223
     29 C          -7.5171    4.9011   -0.1654 C.ar    1  LIG1        0.0623
     30 C          -6.9996    6.0413    0.4298 C.ar    1  LIG1       -0.0425
     31 C          -7.7131    7.2402    0.4477 C.ar    1  LIG1       -0.0234
     32 C          -8.9577    7.2240   -0.1947 C.ar    1  LIG1        0.0828
     33 N          -9.4692    6.1355   -0.7787 N.ar    1  LIG1       -0.2120
     34 H          -6.0277    5.9817    0.9070 H       1  LIG1        0.0629
     35 O          -9.3515    3.9782   -1.4251 O.3     1  LIG1       -0.4919
     36 H          -8.7105    3.2634   -1.5334 H       1  LIG1        0.2937
     37 C          -7.1597    8.4488    1.1763 C.3     1  LIG1       -0.0377
     38 H          -7.9703    9.0450    1.5968 H       1  LIG1        0.0278
     39 H          -6.5932    9.0789    0.4919 H       1  LIG1        0.0278
     40 H          -6.5118    8.1173    1.9880 H       1  LIG1        0.0278
     41 C          -9.4463    9.6781   -0.7001 C.ar    1  LIG1        0.2217
     42 C          -9.8568    8.4165   -0.2395 C.ar    1  LIG1        0.0623
     43 C         -11.1949    8.2899    0.1027 C.ar    1  LIG1       -0.0431
     44 C         -12.0636    9.3835    0.0417 C.ar    1  LIG1       -0.0315
     45 C         -11.5183   10.5819   -0.3982 C.ar    1  LIG1        0.0343
     46 N         -10.2435   10.7252   -0.7678 N.ar    1  LIG1       -0.2206
     47 H         -11.5550    7.3151    0.4123 H       1  LIG1        0.0629
     48 H         -12.1341   11.4717   -0.4712 H       1  LIG1        0.0833
     49 O          -8.1783    9.8486   -1.1303 O.3     1  LIG1       -0.4919
     50 H          -8.1137   10.7613   -1.4430 H       1  LIG1        0.2937
     51 C         -13.5246    9.2617    0.4256 C.3     1  LIG1       -0.0383
     52 H         -13.6227    8.9863    1.4765 H       1  LIG1        0.0278
     53 H         -14.0122    8.4952   -0.1781 H       1  LIG1        0.0278
     54 H         -14.0393   10.2088    0.2657 H       1  LIG1        0.0278
@<TRIPOS>BOND
     1    23    22    1
     2    36    35    1
     3    50    49    1
     4    22    15    1
     5    35    28    1
     6    10     9    1
     7     9     1    1
     8    49    41    1
     9    15    20   ar
    10    15    16   ar
    11    28    33   ar
    12    28    29   ar
    13    33    32   ar
    14    46    41   ar
    15    46    45   ar
    16    20    19   ar
    17     1     6   ar
    18     1     2   ar
    19    41    42   ar
    20     6     5   ar
    21     8     2    1
    22    48    45    1
    23     2     3   ar
    24    45    44   ar
    25     5    16    1
    26     5     4   ar
    27    42    32    1
    28    42    43   ar
    29    16    17   ar
    30    32    31   ar
    31    53    51    1
    32    29    19    1
    33    29    30   ar
    34    19    18   ar
    35    13    11    1
    36     3     4   ar
    37     3     7    1
    38    44    43   ar
    39    44    51    1
    40    43    47    1
    41     4    11    1
    42    54    51    1
    43    17    18   ar
    44    17    21    1
    45    51    52    1
    46    30    31   ar
    47    30    34    1
    48    18    24    1
    49    31    37    1
    50    26    24    1
    51    39    37    1
    52    11    12    1
    53    11    14    1
    54    37    38    1
    55    37    40    1
    56    24    25    1
    57    24    27    1
