@<TRIPOS>MOLECULE
mol_data/opt/m06hf/geoms/mol2/6fi6fi6fi6fi-.out
 54 57 0 0 0
SMALL
GASTEIGER

@<TRIPOS>ATOM
      1 C          -4.2269   -2.0066   -1.1732 C.ar    1  LIG1        0.2128
      2 C          -3.0978   -2.3119   -0.4088 C.ar    1  LIG1        0.0001
      3 C          -2.6934   -1.3655    0.5142 C.ar    1  LIG1       -0.0518
      4 C          -3.3471   -0.1370    0.6566 C.ar    1  LIG1       -0.0241
      5 C          -4.4214    0.0988   -0.2152 C.ar    1  LIG1        0.0828
      6 N          -4.8433   -0.8484   -1.0714 N.ar    1  LIG1       -0.2126
      7 H          -1.8519   -1.5855    1.1606 H       1  LIG1        0.0622
      8 H          -2.5875   -3.2597   -0.5137 H       1  LIG1        0.0671
      9 O          -4.7724   -2.8615   -2.0587 O.3     1  LIG1       -0.4924
     10 H          -4.3105   -3.7063   -2.0576 H       1  LIG1        0.2937
     11 C          -2.9035    0.7973    1.7690 C.3     1  LIG1       -0.0377
     12 H          -3.7578    1.3175    2.2018 H       1  LIG1        0.0278
     13 H          -2.1798    1.5342    1.4144 H       1  LIG1        0.0278
     14 H          -2.4255    0.2090    2.5519 H       1  LIG1        0.0278
     15 C          -6.5642    1.3377   -0.7185 C.ar    1  LIG1        0.2223
     16 C          -5.2188    1.3550   -0.2644 C.ar    1  LIG1        0.0623
     17 C          -4.7283    2.5959    0.1207 C.ar    1  LIG1       -0.0425
     18 C          -5.5007    3.7582    0.1303 C.ar    1  LIG1       -0.0234
     19 C          -6.8289    3.6223   -0.3055 C.ar    1  LIG1        0.0828
     20 N          -7.3056    2.4307   -0.6973 N.ar    1  LIG1       -0.2120
     21 H          -3.6946    2.6792    0.4276 H       1  LIG1        0.0629
     22 O          -7.1527    0.2461   -1.1794 O.3     1  LIG1       -0.4919
     23 H          -6.4370   -0.4277   -1.3382 H       1  LIG1        0.2937
     24 C          -4.8777    5.0322    0.6741 C.3     1  LIG1       -0.0377
     25 H          -5.6001    5.5947    1.2656 H       1  LIG1        0.0278
     26 H          -4.4997    5.6727   -0.1253 H       1  LIG1        0.0278
     27 H          -4.0374    4.7689    1.3168 H       1  LIG1        0.0278
     28 C          -9.2216    4.4450   -0.2775 C.ar    1  LIG1        0.2223
     29 C          -7.8276    4.7258   -0.3650 C.ar    1  LIG1        0.0623
     30 C          -7.4795    6.0636   -0.5159 C.ar    1  LIG1       -0.0425
     31 C          -8.4252    7.0875   -0.5103 C.ar    1  LIG1       -0.0234
     32 C          -9.7563    6.6841   -0.3617 C.ar    1  LIG1        0.0828
     33 N         -10.1268    5.4083   -0.2443 N.ar    1  LIG1       -0.2120
     34 H          -6.4412    6.3325   -0.6512 H       1  LIG1        0.0629
     35 O          -9.6886    3.2042   -0.2231 O.3     1  LIG1       -0.4919
     36 H          -8.9428    2.5984   -0.4848 H       1  LIG1        0.2937
     37 C          -7.9826    8.5345   -0.6044 C.3     1  LIG1       -0.0377
     38 H          -8.6631    9.1776   -0.0449 H       1  LIG1        0.0278
     39 H          -7.9780    8.8693   -1.6409 H       1  LIG1        0.0278
     40 H          -6.9819    8.6376   -0.1830 H       1  LIG1        0.0278
     41 C         -11.1251    8.6820   -1.1896 C.ar    1  LIG1        0.2217
     42 C         -10.8893    7.6541   -0.2628 C.ar    1  LIG1        0.0623
     43 C         -11.8281    7.5086    0.7482 C.ar    1  LIG1       -0.0431
     44 C         -12.9104    8.3855    0.8626 C.ar    1  LIG1       -0.0315
     45 C         -13.0012    9.3840   -0.0978 C.ar    1  LIG1        0.0343
     46 N         -12.1362    9.5239   -1.1049 N.ar    1  LIG1       -0.2206
     47 H         -11.7046    6.6863    1.4443 H       1  LIG1        0.0629
     48 H         -13.8139   10.1012   -0.0695 H       1  LIG1        0.0833
     49 O         -10.3054    8.8229   -2.2535 O.3     1  LIG1       -0.4919
     50 H         -10.6606    9.5532   -2.7784 H       1  LIG1        0.2937
     51 C         -13.9306    8.2496    1.9749 C.3     1  LIG1       -0.0383
     52 H         -13.4649    8.4279    2.9455 H       1  LIG1        0.0278
     53 H         -14.3567    7.2458    1.9768 H       1  LIG1        0.0278
     54 H         -14.7382    8.9690    1.8406 H       1  LIG1        0.0278
@<TRIPOS>BOND
     1    50    49    1
     2    49    41    1
     3     9    10    1
     4     9     1    1
     5    39    37    1
     6    23    22    1
     7    41    46   ar
     8    41    42   ar
     9    22    15    1
    10     1     6   ar
    11     1     2   ar
    12    46    45   ar
    13     6     5   ar
    14    15    20   ar
    15    15    16   ar
    16    20    19   ar
    17    34    30    1
    18    37    31    1
    19    37    40    1
    20    37    38    1
    21    30    31   ar
    22    30    29   ar
    23     8     2    1
    24    31    32   ar
    25    36    35    1
    26     2     3   ar
    27    29    19    1
    28    29    28   ar
    29    32    42    1
    30    32    33   ar
    31    19    18   ar
    32    28    33   ar
    33    28    35    1
    34    16     5    1
    35    16    17   ar
    36    42    43   ar
    37     5     4   ar
    38    26    24    1
    39    45    48    1
    40    45    44   ar
    41    17    18   ar
    42    17    21    1
    43    18    24    1
    44     3     4   ar
    45     3     7    1
    46     4    11    1
    47    24    25    1
    48    24    27    1
    49    43    44   ar
    50    43    47    1
    51    44    51    1
    52    13    11    1
    53    11    12    1
    54    11    14    1
    55    54    51    1
    56    51    53    1
    57    51    52    1
