@<TRIPOS>MOLECULE
mol_data/opt/m06hf/geoms/mol2/6fi6al-12ll-4ff-.out
 55 58 0 0 0
SMALL
GASTEIGER

@<TRIPOS>ATOM
      1 C          -4.4938   -2.3174   -0.1021 C.ar    1  LIG1        0.2128
      2 C          -3.1280   -2.4409    0.1835 C.ar    1  LIG1        0.0001
      3 C          -2.4368   -1.2825    0.4852 C.ar    1  LIG1       -0.0518
      4 C          -3.0721   -0.0370    0.4810 C.ar    1  LIG1       -0.0242
      5 C          -4.4313   -0.0396    0.1402 C.ar    1  LIG1        0.0792
      6 N          -5.1147   -1.1587   -0.1244 N.ar    1  LIG1       -0.2127
      7 H          -1.3854   -1.3401    0.7428 H       1  LIG1        0.0622
      8 H          -2.6401   -3.4067    0.1851 H       1  LIG1        0.0671
      9 O          -5.2700   -3.3893   -0.3768 O.3     1  LIG1       -0.4924
     10 H          -4.7595   -4.2029   -0.3165 H       1  LIG1        0.2937
     11 C          -2.2931    1.2032    0.8850 C.3     1  LIG1       -0.0377
     12 H          -2.9433    1.9321    1.3674 H       1  LIG1        0.0278
     13 H          -1.8189    1.6750    0.0209 H       1  LIG1        0.0278
     14 H          -1.5068    0.9209    1.5852 H       1  LIG1        0.0278
     15 C          -6.5608    1.1870    0.5601 C.ar    1  LIG1        0.0378
     16 C          -5.2522    1.2066    0.0777 C.ar    1  LIG1        0.0223
     17 C          -4.7777    2.3903   -0.4880 C.ar    1  LIG1       -0.0071
     18 C          -5.6115    3.5010   -0.5182 C.ar    1  LIG1        0.1497
     19 C          -6.8943    3.3987    0.0524 C.ar    1  LIG1        0.1512
     20 N          -7.3495    2.2556    0.5559 N.ar    1  LIG1       -0.2474
     21 H          -3.7944    2.4236   -0.9360 H       1  LIG1        0.0662
     22 H          -6.9684    0.2693    0.9636 H       1  LIG1        0.0836
     23 O          -5.2866    4.6877   -1.0720 O.3     1  LIG1       -0.4928
     24 C          -3.9443    4.9122   -1.4542 C.3     1  LIG1        0.0789
     25 H          -3.8934    5.9609   -1.7339 H       1  LIG1        0.0660
     26 H          -3.2688    4.7150   -0.6157 H       1  LIG1        0.0660
     27 H          -3.6722    4.2859   -2.3074 H       1  LIG1        0.0660
     28 C          -7.8076    4.5552    0.0768 C.ar    1  LIG1        0.2026
     29 C          -7.6605    5.9131    0.1635 C.ar    1  LIG1        0.2102
     30 C          -8.9901    6.4666    0.1733 C.ar    1  LIG1        0.2087
     31 C          -9.8454    5.4075    0.1033 C.ar    1  LIG1        0.1846
     32 O          -9.1286    4.2618    0.0565 O.2     1  LIG1       -0.4454
     33 O          -6.5528    6.6928    0.2521 O.3     1  LIG1       -0.4884
     34 C          -5.7236    6.4180    1.3758 C.3     1  LIG1        0.0791
     35 H          -4.9314    7.1638    1.3561 H       1  LIG1        0.0660
     36 H          -6.3027    6.5045    2.2965 H       1  LIG1        0.0660
     37 H          -5.2935    5.4175    1.2989 H       1  LIG1        0.0660
     38 O          -9.2860    7.7868    0.2140 O.3     1  LIG1       -0.4884
     39 C          -8.8184    8.4982   -0.9315 C.3     1  LIG1        0.0791
     40 H          -9.1041    9.5364   -0.7783 H       1  LIG1        0.0660
     41 H          -7.7339    8.4110   -1.0134 H       1  LIG1        0.0660
     42 H          -9.2970    8.1062   -1.8317 H       1  LIG1        0.0660
     43 C         -12.1680    6.1074    0.7245 C.ar    1  LIG1        0.1278
     44 C         -13.5463    5.9484    0.5832 C.ar    1  LIG1       -0.0160
     45 C         -11.3062    5.2717    0.0094 C.ar    1  LIG1        0.0659
     46 C         -14.0686    4.9587   -0.2370 C.ar    1  LIG1       -0.0167
     47 H         -14.2164    6.5981    1.1344 H       1  LIG1        0.0655
     48 C         -11.8365    4.2630   -0.7997 C.ar    1  LIG1       -0.0059
     49 C         -13.2096    4.1039   -0.9235 C.ar    1  LIG1        0.1178
     50 H         -11.1514    3.6096   -1.3275 H       1  LIG1        0.0662
     51 H         -15.1358    4.8262   -0.3497 H       1  LIG1        0.0655
     52 O         -11.6229    7.0261    1.5646 O.3     1  LIG1       -0.5061
     53 H         -12.3081    7.5824    1.9471 H       1  LIG1        0.2922
     54 O         -13.7738    3.1410   -1.7123 O.3     1  LIG1       -0.5067
     55 H         -13.0899    2.5833   -2.0967 H       1  LIG1        0.2921
@<TRIPOS>BOND
     1    27    24    1
     2    55    54    1
     3    42    39    1
     4    25    24    1
     5    54    49    1
     6    24    23    1
     7    24    26    1
     8    50    48    1
     9    23    18    1
    10    41    39    1
    11    21    17    1
    12    39    40    1
    13    39    38    1
    14    49    48   ar
    15    49    46   ar
    16    48    45   ar
    17    18    17   ar
    18    18    19   ar
    19    17    16   ar
    20     9    10    1
    21     9     1    1
    22    51    46    1
    23    46    44   ar
    24     6     1   ar
    25     6     5   ar
    26     1     2   ar
    27    45    31    1
    28    45    43   ar
    29    13    11    1
    30    19    28    1
    31    19    20   ar
    32    32    28   ar
    33    32    31   ar
    34    28    29   ar
    35    16     5    1
    36    16    15   ar
    37    31    30   ar
    38     5     4   ar
    39    29    30   ar
    40    29    33    1
    41    30    38    1
    42     2     8    1
    43     2     3   ar
    44    33    34    1
    45     4     3   ar
    46     4    11    1
    47     3     7    1
    48    20    15   ar
    49    15    22    1
    50    44    43   ar
    51    44    47    1
    52    43    52    1
    53    11    12    1
    54    11    14    1
    55    37    34    1
    56    35    34    1
    57    34    36    1
    58    52    53    1
