@<TRIPOS>MOLECULE
mol_data/opt/m06hf/geoms/mol2/6fi6fi-6fi.out
 41 43 0 0 0
SMALL
GASTEIGER

@<TRIPOS>ATOM
      1 C          -4.5564   -2.1322   -0.5432 C.ar    1  LIG1        0.2128
      2 C          -3.1862   -2.2701   -0.2893 C.ar    1  LIG1        0.0001
      3 C          -2.4834   -1.1283    0.0485 C.ar    1  LIG1       -0.0518
      4 C          -3.1145    0.1181    0.1089 C.ar    1  LIG1       -0.0241
      5 C          -4.4767    0.1289   -0.2059 C.ar    1  LIG1        0.0828
      6 N          -5.1757   -0.9726   -0.5008 N.ar    1  LIG1       -0.2126
      7 H          -1.4271   -1.1984    0.2815 H       1  LIG1        0.0622
      8 H          -2.7029   -3.2375   -0.3387 H       1  LIG1        0.0671
      9 O          -5.3429   -3.1898   -0.8491 O.3     1  LIG1       -0.4924
     10 H          -4.8266   -4.0020   -0.8687 H       1  LIG1        0.2937
     11 C          -2.3423    1.3498    0.5369 C.3     1  LIG1       -0.0377
     12 H          -3.0000    2.0562    1.0441 H       1  LIG1        0.0278
     13 H          -1.9110    1.8481   -0.3304 H       1  LIG1        0.0278
     14 H          -1.5464    1.0594    1.2231 H       1  LIG1        0.0278
     15 C          -4.9652    2.5465   -0.8730 C.ar    1  LIG1        0.2223
     16 C          -5.3020    1.3745   -0.1775 C.ar    1  LIG1        0.0623
     17 C          -6.5101    1.3909    0.5022 C.ar    1  LIG1       -0.0425
     18 C          -7.3259    2.5271    0.5239 C.ar    1  LIG1       -0.0234
     19 C          -6.8730    3.6297   -0.2093 C.ar    1  LIG1        0.0828
     20 N          -5.7167    3.6290   -0.8839 N.ar    1  LIG1       -0.2120
     21 H          -6.8117    0.4927    1.0284 H       1  LIG1        0.0629
     22 O          -3.8328    2.5837   -1.6031 O.3     1  LIG1       -0.4919
     23 H          -3.8150    3.4408   -2.0513 H       1  LIG1        0.2937
     24 C          -8.6015    2.5678    1.3476 C.3     1  LIG1       -0.0377
     25 H          -8.6297    1.7094    2.0174 H       1  LIG1        0.0278
     26 H          -9.4886    2.5499    0.7128 H       1  LIG1        0.0278
     27 H          -8.6314    3.4822    1.9417 H       1  LIG1        0.0278
     28 C          -8.9642    4.9187   -0.8111 C.ar    1  LIG1        0.2217
     29 C          -7.6654    4.8951   -0.2687 C.ar    1  LIG1        0.0623
     30 C          -7.1402    6.0957    0.1843 C.ar    1  LIG1       -0.0431
     31 C          -7.9068    7.2615    0.1484 C.ar    1  LIG1       -0.0315
     32 C          -9.1924    7.1377   -0.3686 C.ar    1  LIG1        0.0343
     33 N          -9.7074    6.0049   -0.8469 N.ar    1  LIG1       -0.2206
     34 H          -6.1284    6.1097    0.5745 H       1  LIG1        0.0629
     35 H          -9.8451    8.0033   -0.4123 H       1  LIG1        0.0833
     36 O          -9.5286    3.8107   -1.3426 O.3     1  LIG1       -0.4919
     37 H          -8.8665    3.1132   -1.4340 H       1  LIG1        0.2937
     38 C          -7.3712    8.5878    0.6500 C.3     1  LIG1       -0.0383
     39 H          -8.1214    9.3687    0.5290 H       1  LIG1        0.0278
     40 H          -6.4795    8.8749    0.0909 H       1  LIG1        0.0278
     41 H          -7.1085    8.5204    1.7066 H       1  LIG1        0.0278
@<TRIPOS>BOND
     1    23    22    1
     2    22    15    1
     3    37    36    1
     4    36    28    1
     5    20    15   ar
     6    20    19   ar
     7    15    16   ar
     8    10     9    1
     9     9     1    1
    10    33    28   ar
    11    33    32   ar
    12    28    29   ar
    13     1     6   ar
    14     1     2   ar
    15     6     5   ar
    16    35    32    1
    17    32    31   ar
    18     8     2    1
    19    13    11    1
    20     2     3   ar
    21    29    19    1
    22    29    30   ar
    23    19    18   ar
    24     5    16    1
    25     5     4   ar
    26    16    17   ar
    27     3     4   ar
    28     3     7    1
    29    40    38    1
    30     4    11    1
    31    31    30   ar
    32    31    38    1
    33    30    34    1
    34    17    18   ar
    35    17    21    1
    36    18    24    1
    37    39    38    1
    38    11    12    1
    39    11    14    1
    40    38    41    1
    41    26    24    1
    42    24    27    1
    43    24    25    1
