@<TRIPOS>MOLECULE
mol_data/opt/m06hf/geoms/mol2/6fi6fi6fi.out
 41 43 0 0 0
SMALL
GASTEIGER

@<TRIPOS>ATOM
      1 C          -4.5226   -2.1097   -0.7229 C.ar    1  LIG1        0.2128
      2 C          -3.1746   -2.2775   -0.3939 C.ar    1  LIG1        0.0001
      3 C          -2.5171   -1.1789    0.1280 C.ar    1  LIG1       -0.0518
      4 C          -3.1469    0.0606    0.2845 C.ar    1  LIG1       -0.0241
      5 C          -4.4794    0.1374   -0.1462 C.ar    1  LIG1        0.0828
      6 N          -5.1283   -0.9479   -0.6031 N.ar    1  LIG1       -0.2126
      7 H          -1.4847   -1.2819    0.4408 H       1  LIG1        0.0622
      8 H          -2.6821   -3.2335   -0.5115 H       1  LIG1        0.0671
      9 O          -5.3018   -3.1093   -1.1772 O.3     1  LIG1       -0.4924
     10 H          -4.8166   -3.9404   -1.2131 H       1  LIG1        0.2937
     11 C          -2.3846    1.1852    0.9632 C.3     1  LIG1       -0.0377
     12 H          -3.0515    1.7889    1.5784 H       1  LIG1        0.0278
     13 H          -1.8876    1.8323    0.2372 H       1  LIG1        0.0278
     14 H          -1.6182    0.7530    1.6061 H       1  LIG1        0.0278
     15 C          -6.7279    1.2751    0.0147 C.ar    1  LIG1        0.2223
     16 C          -5.3163    1.3688   -0.1080 C.ar    1  LIG1        0.0623
     17 C          -4.7982    2.6548   -0.1837 C.ar    1  LIG1       -0.0425
     18 C          -5.5859    3.8031   -0.0886 C.ar    1  LIG1       -0.0234
     19 C          -6.9652    3.5959    0.0651 C.ar    1  LIG1        0.0828
     20 N          -7.4776    2.3572    0.1235 N.ar    1  LIG1       -0.2120
     21 H          -3.7338    2.7843   -0.3264 H       1  LIG1        0.0629
     22 O          -7.3709    0.1185    0.0317 O.3     1  LIG1       -0.4919
     23 H          -6.7336   -0.5768   -0.2839 H       1  LIG1        0.2937
     24 C          -4.8976    5.1572   -0.0765 C.3     1  LIG1       -0.0377
     25 H          -5.4078    5.8427    0.6002 H       1  LIG1        0.0278
     26 H          -4.8642    5.6049   -1.0719 H       1  LIG1        0.0278
     27 H          -3.8712    5.0308    0.2683 H       1  LIG1        0.0278
     28 C          -9.1839    4.4633    0.9189 C.ar    1  LIG1        0.2217
     29 C          -7.9755    4.6832    0.1952 C.ar    1  LIG1        0.0623
     30 C          -7.8173    5.9322   -0.3957 C.ar    1  LIG1       -0.0431
     31 C          -8.7523    6.9475   -0.2049 C.ar    1  LIG1       -0.0315
     32 C          -9.8359    6.6328    0.6092 C.ar    1  LIG1        0.0343
     33 N         -10.0555    5.4348    1.1411 N.ar    1  LIG1       -0.2206
     34 H          -6.9625    6.1189   -1.0332 H       1  LIG1        0.0629
     35 H         -10.5830    7.3886    0.8304 H       1  LIG1        0.0833
     36 O          -9.4986    3.2707    1.4099 O.3     1  LIG1       -0.4919
     37 H          -8.8983    2.6058    0.9807 H       1  LIG1        0.2937
     38 C          -8.6008    8.3098   -0.8513 C.3     1  LIG1       -0.0383
     39 H          -9.3579    8.9944   -0.4694 H       1  LIG1        0.0278
     40 H          -8.7183    8.2370   -1.9341 H       1  LIG1        0.0278
     41 H          -7.6172    8.7314   -0.6389 H       1  LIG1        0.0278
@<TRIPOS>BOND
     1    40    38    1
     2    10     9    1
     3     9     1    1
     4    26    24    1
     5    34    30    1
     6    38    41    1
     7    38    39    1
     8    38    31    1
     9     1     6   ar
    10     1     2   ar
    11     6     5   ar
    12     8     2    1
    13    30    31   ar
    14    30    29   ar
    15     2     3   ar
    16    21    17    1
    17    23    22    1
    18    31    32   ar
    19    17    16   ar
    20    17    18   ar
    21     5    16    1
    22     5     4   ar
    23    16    15   ar
    24    18    24    1
    25    18    19   ar
    26    24    27    1
    27    24    25    1
    28    15    22    1
    29    15    20   ar
    30    19    20   ar
    31    19    29    1
    32     3     4   ar
    33     3     7    1
    34    29    28   ar
    35    13    11    1
    36     4    11    1
    37    32    35    1
    38    32    33   ar
    39    28    33   ar
    40    28    36    1
    41    11    12    1
    42    11    14    1
    43    37    36    1
