@<TRIPOS>MOLECULE
mol_data/opt/m06hf/geoms/mol2/6fi6fi-6fi-6fi.out
 54 57 0 0 0
SMALL
GASTEIGER

@<TRIPOS>ATOM
      1 C          -4.6685   -2.2951   -0.0678 C.ar    1  LIG1        0.2128
      2 C          -3.2820   -2.4457   -0.1967 C.ar    1  LIG1        0.0001
      3 C          -2.5227   -1.2936   -0.2850 C.ar    1  LIG1       -0.0518
      4 C          -3.1218   -0.0305   -0.2703 C.ar    1  LIG1       -0.0241
      5 C          -4.5176   -0.0158   -0.1800 C.ar    1  LIG1        0.0828
      6 N          -5.2613   -1.1211   -0.0598 N.ar    1  LIG1       -0.2126
      7 H          -1.4436   -1.3668   -0.3549 H       1  LIG1        0.0622
      8 H          -2.8246   -3.4268   -0.2082 H       1  LIG1        0.0671
      9 O          -5.4972   -3.3584    0.0609 O.3     1  LIG1       -0.4924
     10 H          -4.9962   -4.1801    0.0431 H       1  LIG1        0.2937
     11 C          -2.2681    1.2210   -0.3067 C.3     1  LIG1       -0.0377
     12 H          -2.7521    2.0324    0.2375 H       1  LIG1        0.0278
     13 H          -2.1124    1.5455   -1.3347 H       1  LIG1        0.0278
     14 H          -1.3039    1.0152    0.1591 H       1  LIG1        0.0278
     15 C          -5.1820    2.2769   -1.0892 C.ar    1  LIG1        0.2223
     16 C          -5.3041    1.2537   -0.1362 C.ar    1  LIG1        0.0623
     17 C          -6.2605    1.4458    0.8479 C.ar    1  LIG1       -0.0425
     18 C          -7.0197    2.6184    0.9152 C.ar    1  LIG1       -0.0234
     19 C          -6.7765    3.5684   -0.0769 C.ar    1  LIG1        0.0828
     20 N          -5.8833    3.3900   -1.0552 N.ar    1  LIG1       -0.2120
     21 H          -6.4065    0.6577    1.5777 H       1  LIG1        0.0629
     22 O          -4.3281    2.1261   -2.1225 O.3     1  LIG1       -0.4919
     23 H          -4.4070    2.9218   -2.6664 H       1  LIG1        0.2937
     24 C          -8.0309    2.8236    2.0283 C.3     1  LIG1       -0.0377
     25 H          -7.7166    2.2710    2.9135 H       1  LIG1        0.0278
     26 H          -9.0166    2.4590    1.7323 H       1  LIG1        0.0278
     27 H          -8.1154    3.8794    2.2831 H       1  LIG1        0.0278
     28 C          -6.8659    6.0920   -0.0065 C.ar    1  LIG1        0.2223
     29 C          -7.5298    4.8584   -0.1272 C.ar    1  LIG1        0.0623
     30 C          -8.9009    4.9108   -0.3006 C.ar    1  LIG1       -0.0425
     31 C          -9.5869    6.1319   -0.3723 C.ar    1  LIG1       -0.0234
     32 C          -8.8044    7.2867   -0.2802 C.ar    1  LIG1        0.0828
     33 N          -7.4781    7.2549   -0.0848 N.ar    1  LIG1       -0.2120
     34 H          -9.4541    3.9816   -0.3822 H       1  LIG1        0.0629
     35 O          -5.5417    6.1016    0.2160 O.3     1  LIG1       -0.4919
     36 H          -5.2631    7.0269    0.2535 H       1  LIG1        0.2937
     37 C         -11.1014    6.1791   -0.4816 C.3     1  LIG1       -0.0377
     38 H         -11.5137    5.1929   -0.2714 H       1  LIG1        0.0278
     39 H         -11.4244    6.4932   -1.4751 H       1  LIG1        0.0278
     40 H         -11.5021    6.8909    0.2414 H       1  LIG1        0.0278
     41 C         -10.1301    9.0668   -1.4991 C.ar    1  LIG1        0.2217
     42 C          -9.4155    8.6473   -0.3606 C.ar    1  LIG1        0.0623
     43 C          -9.2686    9.5604    0.6729 C.ar    1  LIG1       -0.0431
     44 C          -9.8639   10.8201    0.5942 C.ar    1  LIG1       -0.0315
     45 C         -10.5838   11.0899   -0.5653 C.ar    1  LIG1        0.0343
     46 N         -10.7073   10.2466   -1.5900 N.ar    1  LIG1       -0.2206
     47 H          -8.6904    9.2738    1.5445 H       1  LIG1        0.0629
     48 H         -11.0822   12.0463   -0.6835 H       1  LIG1        0.0833
     49 O         -10.2584    8.2716   -2.5860 O.3     1  LIG1       -0.4919
     50 H          -9.6633    7.5145   -2.5100 H       1  LIG1        0.2937
     51 C          -9.7311   11.8390    1.7081 C.3     1  LIG1       -0.0383
     52 H         -10.3302   12.7219    1.4870 H       1  LIG1        0.0278
     53 H          -8.6904   12.1462    1.8213 H       1  LIG1        0.0278
     54 H         -10.0708   11.4182    2.6554 H       1  LIG1        0.0278
@<TRIPOS>BOND
     1    23    22    1
     2    49    50    1
     3    49    41    1
     4    22    15    1
     5    46    41   ar
     6    46    45   ar
     7    41    42   ar
     8    39    37    1
     9    13    11    1
    10    15    20   ar
    11    15    16   ar
    12    20    19   ar
    13    48    45    1
    14    45    44   ar
    15    37    31    1
    16    37    38    1
    17    37    40    1
    18    34    30    1
    19    31    30   ar
    20    31    32   ar
    21    42    32    1
    22    42    43   ar
    23     7     3    1
    24    11     4    1
    25    11    14    1
    26    11    12    1
    27    30    29   ar
    28     3     4   ar
    29     3     2   ar
    30    32    33   ar
    31     4     5   ar
    32     8     2    1
    33     2     1   ar
    34     5    16    1
    35     5     6   ar
    36    16    17   ar
    37    29    19    1
    38    29    28   ar
    39    33    28   ar
    40    19    18   ar
    41     1     6   ar
    42     1     9    1
    43    28    35    1
    44    10     9    1
    45    35    36    1
    46    44    43   ar
    47    44    51    1
    48    43    47    1
    49    17    18   ar
    50    17    21    1
    51    18    24    1
    52    52    51    1
    53    51    53    1
    54    51    54    1
    55    26    24    1
    56    24    27    1
    57    24    25    1
