@<TRIPOS>MOLECULE
mol_data/opt/m06hf/geoms/mol2/6fi6fi-.out
 28 29 0 0 0
SMALL
GASTEIGER

@<TRIPOS>ATOM
      1 C          -4.4564   -1.9969   -0.6970 C.ar    1  LIG1        0.2128
      2 C          -3.1341   -2.1140   -0.2515 C.ar    1  LIG1        0.0001
      3 C          -2.5320   -0.9773    0.2564 C.ar    1  LIG1       -0.0518
      4 C          -3.2120    0.2431    0.2997 C.ar    1  LIG1       -0.0241
      5 C          -4.5125    0.2393   -0.2157 C.ar    1  LIG1        0.0828
      6 N          -5.1174   -0.8601   -0.6790 N.ar    1  LIG1       -0.2126
      7 H          -1.5200   -1.0333    0.6401 H       1  LIG1        0.0622
      8 H          -2.6139   -3.0626   -0.2864 H       1  LIG1        0.0671
      9 O          -5.1500   -3.0569   -1.1761 O.3     1  LIG1       -0.4924
     10 H          -4.6050   -3.8503   -1.1634 H       1  LIG1        0.2937
     11 C          -2.5598    1.4621    0.9208 C.3     1  LIG1       -0.0377
     12 H          -3.3105    2.0993    1.3893 H       1  LIG1        0.0278
     13 H          -2.0435    2.0471    0.1607 H       1  LIG1        0.0278
     14 H          -1.8476    1.1440    1.6827 H       1  LIG1        0.0278
     15 C          -4.9759    2.6851   -0.7832 C.ar    1  LIG1        0.2217
     16 C          -5.3761    1.4586   -0.2284 C.ar    1  LIG1        0.0623
     17 C          -6.6739    1.3942    0.2560 C.ar    1  LIG1       -0.0431
     18 C          -7.5090    2.5153    0.2369 C.ar    1  LIG1       -0.0315
     19 C          -6.9746    3.6750   -0.3078 C.ar    1  LIG1        0.0343
     20 N          -5.7418    3.7571   -0.8141 N.ar    1  LIG1       -0.2206
     21 H          -7.0297    0.4460    0.6438 H       1  LIG1        0.0629
     22 H          -7.5647    4.5838   -0.3536 H       1  LIG1        0.0833
     23 O          -3.7541    2.7910   -1.3476 O.3     1  LIG1       -0.4919
     24 H          -3.6944    3.6853   -1.7109 H       1  LIG1        0.2937
     25 C          -8.9234    2.4624    0.7784 C.3     1  LIG1       -0.0383
     26 H          -8.9161    2.2294    1.8442 H       1  LIG1        0.0278
     27 H          -9.4977    1.6922    0.2621 H       1  LIG1        0.0278
     28 H          -9.4216    3.4210    0.6361 H       1  LIG1        0.0278
@<TRIPOS>BOND
     1    24    23    1
     2    23    15    1
     3     9    10    1
     4     9     1    1
     5    20    15   ar
     6    20    19   ar
     7    15    16   ar
     8     1     6   ar
     9     1     2   ar
    10     6     5   ar
    11    22    19    1
    12    19    18   ar
    13     8     2    1
    14     2     3   ar
    15    16     5    1
    16    16    17   ar
    17     5     4   ar
    18    13    11    1
    19    18    17   ar
    20    18    25    1
    21    17    21    1
    22     3     4   ar
    23     3     7    1
    24    27    25    1
    25     4    11    1
    26    28    25    1
    27    25    26    1
    28    11    12    1
    29    11    14    1
