@<TRIPOS>MOLECULE
mol_data/opt/m06hf/geoms/mol2/6fl12ii4el-12il.out
 59 62 0 0 0
SMALL
GASTEIGER

@<TRIPOS>ATOM
      1 C          -4.2686   -2.1847   -0.0401 C.ar    1  LIG1        0.2131
      2 C          -2.9655   -2.1328   -0.5386 C.ar    1  LIG1        0.0033
      3 C          -2.4296   -0.8908   -0.8535 C.ar    1  LIG1       -0.0127
      4 C          -3.2002    0.2523   -0.6561 C.ar    1  LIG1        0.1492
      5 C          -4.4848    0.0900   -0.1118 C.ar    1  LIG1        0.1514
      6 N          -4.9951   -1.1051    0.1705 N.ar    1  LIG1       -0.2062
      7 H          -1.4298   -0.8276   -1.2599 H       1  LIG1        0.0656
      8 H          -2.3858   -3.0352   -0.6821 H       1  LIG1        0.0672
      9 O          -4.8749   -3.3531    0.2835 O.3     1  LIG1       -0.4924
     10 H          -4.3144   -4.1016    0.0563 H       1  LIG1        0.2937
     11 O          -2.8102    1.5118   -0.9766 O.3     1  LIG1       -0.4929
     12 C          -1.4638    1.7103   -1.3581 C.3     1  LIG1        0.0789
     13 H          -1.3507    2.7824   -1.4971 H       1  LIG1        0.0660
     14 H          -0.7852    1.3625   -0.5739 H       1  LIG1        0.0660
     15 H          -1.2451    1.1949   -2.2969 H       1  LIG1        0.0660
     16 C          -5.3478    1.2571    0.1572 C.ar    1  LIG1        0.1606
     17 C          -5.1185    2.4825    0.7069 C.ar    1  LIG1        0.0005
     18 C          -6.4037    3.1380    0.7487 C.ar    1  LIG1       -0.0011
     19 C          -7.2879    2.2509    0.2079 C.ar    1  LIG1        0.1402
     20 O          -6.6558    1.1074   -0.1345 O.2     1  LIG1       -0.4526
     21 C          -3.8237    3.0451    1.2315 C.3     1  LIG1       -0.0358
     22 H          -4.0104    3.6143    2.1430 H       1  LIG1        0.0279
     23 H          -3.3688    3.7057    0.4908 H       1  LIG1        0.0279
     24 H          -3.1215    2.2432    1.4560 H       1  LIG1        0.0279
     25 C          -6.6844    4.4775    1.3763 C.3     1  LIG1       -0.0358
     26 H          -7.7551    4.6167    1.5176 H       1  LIG1        0.0279
     27 H          -6.3134    5.2877    0.7461 H       1  LIG1        0.0279
     28 H          -6.1916    4.5343    2.3486 H       1  LIG1        0.0279
     29 C          -9.4443    3.3640   -0.4903 C.ar    1  LIG1        0.0362
     30 C         -10.8362    3.3042   -0.6133 C.ar    1  LIG1       -0.0314
     31 C          -8.7484    2.2545    0.0173 C.ar    1  LIG1        0.0364
     32 C         -11.5496    2.1645   -0.2568 C.ar    1  LIG1        0.0604
     33 H         -11.3615    4.1515   -1.0342 H       1  LIG1        0.0638
     34 C          -9.4606    1.0996    0.3497 C.ar    1  LIG1       -0.0074
     35 C         -10.8409    1.0481    0.2213 C.ar    1  LIG1        0.1315
     36 H          -8.9401    0.2264    0.7214 H       1  LIG1        0.0662
     37 C          -8.7655    4.5423   -0.9762 C.1     1  LIG1       -0.0689
     38 C          -8.2497    5.5356   -1.4149 C.1     1  LIG1       -0.1139
     39 H          -7.7833    6.4077   -1.8101 H       1  LIG1        0.1232
     40 O         -11.4765   -0.1078    0.5688 O.3     1  LIG1       -0.4944
     41 C         -12.2853   -0.0212    1.7410 C.3     1  LIG1        0.0788
     42 H         -12.6811   -1.0201    1.9046 H       1  LIG1        0.0660
     43 H         -11.6718    0.2844    2.5914 H       1  LIG1        0.0660
     44 H         -13.1069    0.6842    1.6002 H       1  LIG1        0.0660
     45 C         -13.0175    2.1536   -0.3761 C.ar    1  LIG1        0.1449
     46 C         -13.9499    3.0792   -0.0144 C.ar    1  LIG1        0.0371
     47 C         -15.2158    2.4558   -0.3110 C.ar    1  LIG1        0.1611
     48 C         -14.9481    1.2291   -0.8236 C.ar    1  LIG1        0.1343
     49 O         -13.6139    1.0410   -0.8638 O.2     1  LIG1       -0.4588
     50 H         -15.5753    0.4272   -1.1689 H       1  LIG1        0.1068
     51 C         -13.7628    4.4214    0.6438 C.3     1  LIG1       -0.0326
     52 H         -14.6111    4.6112    1.3022 H       1  LIG1        0.0280
     53 H         -13.7124    5.2243   -0.0946 H       1  LIG1        0.0280
     54 H         -12.8423    4.4302    1.2278 H       1  LIG1        0.0280
     55 O         -16.4431    2.9981   -0.0724 O.3     1  LIG1       -0.4917
     56 C         -16.8631    3.9110   -1.0822 C.3     1  LIG1        0.0789
     57 H         -17.8309    4.2945   -0.7679 H       1  LIG1        0.0660
     58 H         -16.1500    4.7330   -1.1770 H       1  LIG1        0.0660
     59 H         -16.9528    3.3951   -2.0402 H       1  LIG1        0.0660
@<TRIPOS>BOND
     1    15    12    1
     2    59    56    1
     3    39    38    1
     4    13    12    1
     5    38    37    3
     6    12    11    1
     7    12    14    1
     8     7     3    1
     9    58    56    1
    10    50    48    1
    11    56    57    1
    12    56    55    1
    13    33    30    1
    14    11     4    1
    15    37    29    1
    16    49    48   ar
    17    49    45   ar
    18     3     4   ar
    19     3     2   ar
    20    48    47   ar
    21     8     2    1
    22     4     5   ar
    23    30    29   ar
    24    30    32   ar
    25     2     1   ar
    26    29    31   ar
    27    45    32    1
    28    45    46   ar
    29    47    55    1
    30    47    46   ar
    31    32    35   ar
    32    20    16   ar
    33    20    19   ar
    34     5    16    1
    35     5     6   ar
    36    53    51    1
    37     1     6   ar
    38     1     9    1
    39    46    51    1
    40    31    19    1
    41    31    34   ar
    42    10     9    1
    43    16    17   ar
    44    19    18   ar
    45    35    34   ar
    46    35    40    1
    47    34    36    1
    48    23    21    1
    49    40    41    1
    50    51    54    1
    51    51    52    1
    52    17    18   ar
    53    17    21    1
    54    27    25    1
    55    18    25    1
    56    21    24    1
    57    21    22    1
    58    25    26    1
    59    25    28    1
    60    44    41    1
    61    41    42    1
    62    41    43    1
