@<TRIPOS>MOLECULE
mol_data/opt/m06hf/geoms/mol2/6fl13di12lh13ld-.out
 54 57 0 0 0
SMALL
GASTEIGER

@<TRIPOS>ATOM
      1 C          -4.5805   -2.0191   -0.9141 C.ar    1  LIG1        0.2131
      2 C          -3.1984   -2.2161   -0.9799 C.ar    1  LIG1        0.0033
      3 C          -2.3668   -1.1324   -0.7355 C.ar    1  LIG1       -0.0127
      4 C          -2.9300    0.1035   -0.4251 C.ar    1  LIG1        0.1477
      5 C          -4.3238    0.1855   -0.3444 C.ar    1  LIG1        0.1336
      6 N          -5.1147   -0.8563   -0.6026 N.ar    1  LIG1       -0.2078
      7 H          -1.2933   -1.2484   -0.7973 H       1  LIG1        0.0656
      8 H          -2.7855   -3.1860   -1.2234 H       1  LIG1        0.0672
      9 O          -5.4710   -3.0111   -1.1571 O.3     1  LIG1       -0.4924
     10 H          -5.0158   -3.8275   -1.3857 H       1  LIG1        0.2937
     11 O          -2.2470    1.2441   -0.2209 O.3     1  LIG1       -0.4929
     12 C          -0.8632    1.1855    0.0836 C.3     1  LIG1        0.0789
     13 H          -0.6000    2.1895    0.4041 H       1  LIG1        0.0660
     14 H          -0.6848    0.4745    0.8938 H       1  LIG1        0.0660
     15 H          -0.2883    0.9053   -0.8020 H       1  LIG1        0.0660
     16 C          -5.0371    1.4299    0.0113 C.ar    1  LIG1        0.0870
     17 C          -4.7145    2.6828    0.5323 C.ar    1  LIG1        0.0822
     18 C          -5.9215    3.4286    0.6808 C.ar    1  LIG1       -0.0040
     19 C          -6.9342    2.6035    0.2307 C.ar    1  LIG1        0.0905
     20 N          -6.3787    1.4200   -0.1564 N.ar    1  LIG1       -0.3491
     21 H          -6.8630    0.6012   -0.5042 H       1  LIG1        0.1661
     22 N          -2.5230    3.7724    1.3508 N.1     1  LIG1       -0.1908
     23 C          -3.4582    3.2301    0.9600 C.1     1  LIG1        0.1016
     24 C          -6.0303    4.8128    1.2676 C.3     1  LIG1       -0.0364
     25 H          -7.0707    5.1340    1.2930 H       1  LIG1        0.0279
     26 H          -5.4525    5.5216    0.6707 H       1  LIG1        0.0279
     27 H          -5.6222    4.8157    2.2791 H       1  LIG1        0.0279
     28 C          -8.3717    2.8069    0.1291 C.ar    1  LIG1        0.1954
     29 C          -9.1592    3.8956   -0.0893 C.ar    1  LIG1        0.1885
     30 C         -10.5290    3.4440   -0.1071 C.ar    1  LIG1        0.1156
     31 C         -10.4612    2.0972    0.0856 C.ar    1  LIG1        0.1797
     32 O          -9.1572    1.7040    0.2237 O.2     1  LIG1       -0.4460
     33 O          -8.8146    5.1945   -0.2958 O.3     1  LIG1       -0.4896
     34 C          -8.0235    5.4079   -1.4691 C.3     1  LIG1        0.0791
     35 H          -7.8513    6.4798   -1.5256 H       1  LIG1        0.0660
     36 H          -7.0737    4.8780   -1.3866 H       1  LIG1        0.0660
     37 H          -8.5684    5.0615   -2.3489 H       1  LIG1        0.0660
     38 N         -11.6202    4.2816   -0.2536 N.pl3   1  LIG1       -0.3521
     39 H         -11.3719    5.1879   -0.6255 H       1  LIG1        0.1425
     40 H         -12.4258    3.8445   -0.6848 H       1  LIG1        0.1425
     41 C         -11.4572    1.0477    0.1745 C.ar    1  LIG1        0.1276
     42 C         -12.8242    1.0630    0.0158 C.ar    1  LIG1        0.1656
     43 C         -13.2902   -0.2714    0.2236 C.ar    1  LIG1        0.1113
     44 C         -12.1860   -1.0520    0.4936 C.ar    1  LIG1        0.0234
     45 N         -11.0994   -0.2466    0.4574 N.ar    1  LIG1       -0.3541
     46 H         -10.1455   -0.5316    0.6230 H       1  LIG1        0.1656
     47 H         -12.1169   -2.1049    0.7008 H       1  LIG1        0.0821
     48 O         -13.5907    2.1457   -0.2942 O.3     1  LIG1       -0.4916
     49 C         -14.3239    2.6653    0.8248 C.3     1  LIG1        0.0789
     50 H         -14.8954    3.5088    0.4448 H       1  LIG1        0.0660
     51 H         -14.9974    1.9011    1.2140 H       1  LIG1        0.0660
     52 H         -13.6251    2.9963    1.5939 H       1  LIG1        0.0660
     53 N         -15.7549   -1.0261    0.1147 N.1     1  LIG1       -0.1907
     54 C         -14.6533   -0.7049    0.1572 C.1     1  LIG1        0.1044
@<TRIPOS>BOND
     1    37    34    1
     2    35    34    1
     3    34    36    1
     4    34    33    1
     5    10     9    1
     6     8     2    1
     7     9     1    1
     8     2     1   ar
     9     2     3   ar
    10     1     6   ar
    11    15    12    1
    12     7     3    1
    13     3     4   ar
    14    40    38    1
    15    39    38    1
    16     6     5   ar
    17    21    20    1
    18     4     5   ar
    19     4    11    1
    20     5    16    1
    21    33    29    1
    22    48    42    1
    23    48    49    1
    24    38    30    1
    25    11    12    1
    26    20    16   ar
    27    20    19   ar
    28    30    29   ar
    29    30    31   ar
    30    29    28   ar
    31    16    17   ar
    32    42    41   ar
    33    42    43   ar
    34    12    13    1
    35    12    14    1
    36    31    41    1
    37    31    32   ar
    38    53    54    3
    39    28    32   ar
    40    28    19    1
    41    54    43    1
    42    41    45   ar
    43    43    44   ar
    44    19    18   ar
    45    50    49    1
    46    45    44   ar
    47    45    46    1
    48    44    47    1
    49    17    18   ar
    50    17    23    1
    51    26    24    1
    52    18    24    1
    53    49    51    1
    54    49    52    1
    55    23    22    3
    56    24    25    1
    57    24    27    1
