@<TRIPOS>MOLECULE
mol_data/opt/m06hf/geoms/mol2/6fl4hl12ha12dh.out
 51 54 0 0 0
SMALL
GASTEIGER

@<TRIPOS>ATOM
      1 C          -4.2975   -2.0034    0.9859 C.ar    1  LIG1        0.2130
      2 C          -2.9653   -2.1201    0.5876 C.ar    1  LIG1        0.0033
      3 C          -2.3491   -1.0008    0.0468 C.ar    1  LIG1       -0.0128
      4 C          -3.0666    0.1862   -0.0648 C.ar    1  LIG1        0.1462
      5 C          -4.3917    0.2174    0.4007 C.ar    1  LIG1        0.1181
      6 N          -4.9727   -0.8750    0.8929 N.ar    1  LIG1       -0.2093
      7 H          -1.3238   -1.0671   -0.2907 H       1  LIG1        0.0656
      8 H          -2.4290   -3.0545    0.6848 H       1  LIG1        0.0672
      9 O          -4.9948   -3.0460    1.4975 O.3     1  LIG1       -0.4924
     10 H          -4.4498   -3.8386    1.5228 H       1  LIG1        0.2937
     11 O          -2.5601    1.3270   -0.6197 O.3     1  LIG1       -0.4930
     12 C          -1.3386    1.2311   -1.3322 C.3     1  LIG1        0.0789
     13 H          -1.1858    2.2035   -1.7916 H       1  LIG1        0.0660
     14 H          -0.5087    1.0092   -0.6569 H       1  LIG1        0.0660
     15 H          -1.4107    0.4618   -2.1043 H       1  LIG1        0.0660
     16 C          -4.9005    2.7018    0.7711 C.ar    1  LIG1        0.0349
     17 C          -5.8519    3.7282    0.7047 C.ar    1  LIG1       -0.0262
     18 C          -5.2684    1.4254    0.3074 C.ar    1  LIG1        0.0282
     19 C          -7.1342    3.5191    0.1996 C.ar    1  LIG1        0.0625
     20 H          -5.6004    4.7082    1.0971 H       1  LIG1        0.0644
     21 C          -6.5591    1.2181   -0.1839 C.ar    1  LIG1       -0.0082
     22 C          -7.4897    2.2406   -0.2522 C.ar    1  LIG1        0.1315
     23 H          -6.8552    0.2266   -0.5010 H       1  LIG1        0.0661
     24 N          -3.6700    2.9377    1.3844 N.pl3   1  LIG1       -0.3574
     25 H          -2.8861    2.5246    0.8949 H       1  LIG1        0.1423
     26 H          -3.5124    3.9094    1.6112 H       1  LIG1        0.1423
     27 O          -8.7424    1.9707   -0.7415 O.3     1  LIG1       -0.4944
     28 C          -8.9874    2.4899   -2.0430 C.3     1  LIG1        0.0788
     29 H          -9.9997    2.1908   -2.3039 H       1  LIG1        0.0660
     30 H          -8.9126    3.5809   -2.0494 H       1  LIG1        0.0660
     31 H          -8.2740    2.0675   -2.7552 H       1  LIG1        0.0660
     32 C          -8.0567    4.6572    0.1224 C.ar    1  LIG1        0.1599
     33 C          -7.8150    5.9705   -0.1849 C.ar    1  LIG1        0.0718
     34 C          -9.0841    6.6327   -0.1437 C.ar    1  LIG1        0.0087
     35 C          -9.9871    5.6627    0.1767 C.ar    1  LIG1        0.1737
     36 O          -9.3847    4.4764    0.3370 O.2     1  LIG1       -0.4497
     37 N          -6.5768    6.5661   -0.4607 N.pl3   1  LIG1       -0.3550
     38 H          -5.9175    5.9104   -0.8659 H       1  LIG1        0.1424
     39 H          -6.6661    7.3890   -1.0431 H       1  LIG1        0.1424
     40 H          -9.2894    7.6756   -0.3235 H       1  LIG1        0.0675
     41 C         -11.4262    5.7182    0.3588 C.ar    1  LIG1        0.1889
     42 C         -12.3193    6.7433    0.1889 C.ar    1  LIG1        0.1210
     43 C         -13.6217    6.2130    0.5142 C.ar    1  LIG1        0.0812
     44 C         -13.4000    4.9174    0.8494 C.ar    1  LIG1        0.1146
     45 O         -12.0716    4.6265    0.7556 O.2     1  LIG1       -0.4566
     46 H         -14.0462    4.1227    1.1725 H       1  LIG1        0.1049
     47 N         -11.7938    9.1407   -0.5988 N.1     1  LIG1       -0.1907
     48 C         -12.0242    8.0721   -0.2436 C.1     1  LIG1        0.1049
     49 N         -14.7975    6.9586    0.5280 N.pl3   1  LIG1       -0.3545
     50 H         -14.7999    7.7190   -0.1397 H       1  LIG1        0.1424
     51 H         -15.6408    6.4055    0.4656 H       1  LIG1        0.1424
@<TRIPOS>BOND
     1    31    28    1
     2    29    28    1
     3    15    12    1
     4    30    28    1
     5    28    27    1
     6    13    12    1
     7    12    14    1
     8    12    11    1
     9    39    37    1
    10    38    37    1
    11    27    22    1
    12    11     4    1
    13    47    48    3
    14    23    21    1
    15    37    33    1
    16    40    34    1
    17     7     3    1
    18    22    21   ar
    19    22    19   ar
    20    48    42    1
    21    33    34   ar
    22    33    32   ar
    23    21    18   ar
    24    34    35   ar
    25    50    49    1
    26     4     3   ar
    27     4     5   ar
    28     3     2   ar
    29    32    19    1
    30    32    36   ar
    31    35    36   ar
    32    35    41    1
    33    42    41   ar
    34    42    43   ar
    35    19    17   ar
    36    18     5    1
    37    18    16   ar
    38    41    45   ar
    39     5     6   ar
    40    51    49    1
    41    43    49    1
    42    43    44   ar
    43     2     8    1
    44     2     1   ar
    45    17    16   ar
    46    17    20    1
    47    45    44   ar
    48    16    24    1
    49    44    46    1
    50     6     1   ar
    51    25    24    1
    52     1     9    1
    53    24    26    1
    54     9    10    1
