@<TRIPOS>MOLECULE
mol_data/opt/m06hf/geoms/mol2/6fl6fl6fl6fl-.out
 58 61 0 0 0
SMALL
GASTEIGER

@<TRIPOS>ATOM
      1 C          -4.6036   -2.3387    0.3872 C.ar    1  LIG1        0.2130
      2 C          -3.2569   -2.5199    0.0942 C.ar    1  LIG1        0.0033
      3 C          -2.5038   -1.3872   -0.1867 C.ar    1  LIG1       -0.0128
      4 C          -3.0862   -0.1236   -0.1671 C.ar    1  LIG1        0.1464
      5 C          -4.4586   -0.0223    0.1526 C.ar    1  LIG1        0.1215
      6 N          -5.1501   -1.1379    0.4113 N.ar    1  LIG1       -0.2092
      7 H          -1.4565   -1.5032   -0.4268 H       1  LIG1        0.0656
      8 H          -2.8104   -3.5047    0.0792 H       1  LIG1        0.0672
      9 O          -5.4543   -3.3471    0.6670 O.3     1  LIG1       -0.4924
     10 H          -5.0159   -4.2016    0.6024 H       1  LIG1        0.2937
     11 O          -2.3975    1.0112   -0.4550 O.3     1  LIG1       -0.4930
     12 C          -1.0435    0.8952   -0.8573 C.3     1  LIG1        0.0789
     13 H          -0.7127    1.9075   -1.0715 H       1  LIG1        0.0660
     14 H          -0.4364    0.4719   -0.0539 H       1  LIG1        0.0660
     15 H          -0.9632    0.2826   -1.7581 H       1  LIG1        0.0660
     16 C          -6.6519    1.2046    0.3096 C.ar    1  LIG1        0.2226
     17 C          -5.2400    1.2408    0.2014 C.ar    1  LIG1        0.0689
     18 C          -4.6579    2.5127    0.1549 C.ar    1  LIG1       -0.0034
     19 C          -5.4247    3.6661    0.1577 C.ar    1  LIG1        0.1470
     20 C          -6.8300    3.5396    0.1846 C.ar    1  LIG1        0.1215
     21 N          -7.3650    2.3218    0.2807 N.ar    1  LIG1       -0.2086
     22 H          -3.5845    2.5832    0.1167 H       1  LIG1        0.0663
     23 O          -7.3561    0.0913    0.4405 O.3     1  LIG1       -0.4919
     24 H          -6.7084   -0.6651    0.5035 H       1  LIG1        0.2937
     25 O          -4.8784    4.9146    0.1401 O.3     1  LIG1       -0.4929
     26 C          -3.4760    5.0298    0.2822 C.3     1  LIG1        0.0789
     27 H          -3.2709    6.0962    0.3263 H       1  LIG1        0.0660
     28 H          -3.1433    4.5492    1.2057 H       1  LIG1        0.0660
     29 H          -2.9599    4.5907   -0.5761 H       1  LIG1        0.0660
     30 C          -9.1637    4.4708    0.4637 C.ar    1  LIG1        0.2226
     31 C          -7.7906    4.6708    0.1328 C.ar    1  LIG1        0.0689
     32 C          -7.4227    5.9515   -0.2826 C.ar    1  LIG1       -0.0034
     33 C          -8.3527    6.9804   -0.2990 C.ar    1  LIG1        0.1470
     34 C          -9.6494    6.6981    0.1359 C.ar    1  LIG1        0.1215
     35 N         -10.0328    5.4711    0.4717 N.ar    1  LIG1       -0.2086
     36 H          -6.4135    6.1379   -0.6141 H       1  LIG1        0.0663
     37 O          -9.6554    3.2823    0.7855 O.3     1  LIG1       -0.4919
     38 H          -8.9365    2.6071    0.6347 H       1  LIG1        0.2937
     39 O          -8.0663    8.2239   -0.7850 O.3     1  LIG1       -0.4929
     40 C          -6.9228    8.8526   -0.2226 C.3     1  LIG1        0.0789
     41 H          -6.9866    9.9014   -0.5034 H       1  LIG1        0.0660
     42 H          -6.9414    8.7545    0.8632 H       1  LIG1        0.0660
     43 H          -6.0038    8.4229   -0.6287 H       1  LIG1        0.0660
     44 C         -10.5327    9.0287    0.7057 C.ar    1  LIG1        0.2220
     45 C         -10.7095    7.7454    0.1494 C.ar    1  LIG1        0.0688
     46 C         -11.9581    7.4515   -0.3598 C.ar    1  LIG1       -0.0040
     47 C         -12.9641    8.4254   -0.3640 C.ar    1  LIG1        0.1390
     48 C         -12.6676    9.6700    0.1693 C.ar    1  LIG1        0.0730
     49 N         -11.4699    9.9464    0.7046 N.ar    1  LIG1       -0.2172
     50 H         -12.1631    6.4655   -0.7569 H       1  LIG1        0.0663
     51 H         -13.3918   10.4730    0.1930 H       1  LIG1        0.0868
     52 O          -9.3704    9.3421    1.3232 O.3     1  LIG1       -0.4919
     53 H          -9.4842   10.2373    1.6695 H       1  LIG1        0.2937
     54 O         -14.1622    8.0704   -0.8997 O.3     1  LIG1       -0.4936
     55 C         -15.1713    9.0584   -0.9425 C.3     1  LIG1        0.0789
     56 H         -16.0329    8.5867   -1.4066 H       1  LIG1        0.0660
     57 H         -15.4325    9.3910    0.0660 H       1  LIG1        0.0660
     58 H         -14.8490    9.9140   -1.5426 H       1  LIG1        0.0660
@<TRIPOS>BOND
     1    15    12    1
     2    58    55    1
     3    56    55    1
     4    13    12    1
     5    55    54    1
     6    55    57    1
     7    54    47    1
     8    12    11    1
     9    12    14    1
    10    39    33    1
    11    39    40    1
    12    50    46    1
    13    43    40    1
    14    36    32    1
    15    29    26    1
    16    41    40    1
    17    11     4    1
    18     7     3    1
    19    47    46   ar
    20    47    48   ar
    21    46    45   ar
    22    33    32   ar
    23    33    34   ar
    24    32    31   ar
    25    40    42    1
    26     3     4   ar
    27     3     2   ar
    28     4     5   ar
    29     8     2    1
    30     2     1   ar
    31    22    18    1
    32    31    20    1
    33    31    30   ar
    34    34    45    1
    35    34    35   ar
    36    25    19    1
    37    25    26    1
    38    45    44   ar
    39     5    17    1
    40     5     6   ar
    41    18    19   ar
    42    18    17   ar
    43    19    20   ar
    44    48    51    1
    45    48    49   ar
    46    20    21   ar
    47    17    16   ar
    48    21    16   ar
    49    26    27    1
    50    26    28    1
    51    16    23    1
    52     1     6   ar
    53     1     9    1
    54    23    24    1
    55    30    35   ar
    56    30    37    1
    57    10     9    1
    58    38    37    1
    59    49    44   ar
    60    44    52    1
    61    52    53    1
