@<TRIPOS>MOLECULE
mol_data/opt/m06hf/geoms/mol2/6fl6fl-.out
 30 31 0 0 0
SMALL
GASTEIGER

@<TRIPOS>ATOM
      1 C          -4.4984   -2.0861    0.6260 C.ar    1  LIG1        0.2130
      2 C          -3.1986   -2.2401    0.1302 C.ar    1  LIG1        0.0033
      3 C          -2.5723   -1.1278   -0.4074 C.ar    1  LIG1       -0.0128
      4 C          -3.2383    0.0966   -0.4153 C.ar    1  LIG1        0.1464
      5 C          -4.5168    0.1499    0.1469 C.ar    1  LIG1        0.1215
      6 N          -5.1304   -0.9305    0.6302 N.ar    1  LIG1       -0.2092
      7 H          -1.5830   -1.2102   -0.8384 H       1  LIG1        0.0656
      8 H          -2.7058   -3.2036    0.1487 H       1  LIG1        0.0672
      9 O          -5.1990   -3.1231    1.1456 O.3     1  LIG1       -0.4924
     10 H          -4.6865   -3.9362    1.0980 H       1  LIG1        0.2937
     11 O          -2.7297    1.2120   -1.0057 O.3     1  LIG1       -0.4930
     12 C          -1.4255    1.5991   -0.5871 C.3     1  LIG1        0.0789
     13 H          -1.2891    2.6188   -0.9383 H       1  LIG1        0.0660
     14 H          -1.3609    1.5667    0.5006 H       1  LIG1        0.0660
     15 H          -0.6669    0.9557   -1.0379 H       1  LIG1        0.0660
     16 C          -4.7788    2.6346    0.6550 C.ar    1  LIG1        0.2220
     17 C          -5.2991    1.4179    0.1710 C.ar    1  LIG1        0.0688
     18 C          -6.6185    1.4174   -0.2322 C.ar    1  LIG1       -0.0040
     19 C          -7.3651    2.6014   -0.1995 C.ar    1  LIG1        0.1390
     20 C          -6.7421    3.7507    0.2622 C.ar    1  LIG1        0.0730
     21 N          -5.4714    3.7475    0.6897 N.ar    1  LIG1       -0.2172
     22 H          -7.0843    0.5018   -0.5733 H       1  LIG1        0.0663
     23 H          -7.2535    4.7022    0.3122 H       1  LIG1        0.0868
     24 O          -3.5240    2.6758    1.1593 O.3     1  LIG1       -0.4919
     25 H          -3.3899    3.5802    1.4732 H       1  LIG1        0.2937
     26 O          -8.6527    2.5274   -0.6258 O.3     1  LIG1       -0.4936
     27 C          -9.4225    3.7127   -0.5785 C.3     1  LIG1        0.0789
     28 H         -10.4086    3.4428   -0.9458 H       1  LIG1        0.0660
     29 H          -9.4983    4.0837    0.4473 H       1  LIG1        0.0660
     30 H          -8.9867    4.4833   -1.2197 H       1  LIG1        0.0660
@<TRIPOS>BOND
     1    30    27    1
     2    15    12    1
     3    11    12    1
     4    11     4    1
     5    28    27    1
     6    13    12    1
     7     7     3    1
     8    26    27    1
     9    26    19    1
    10    12    14    1
    11    27    29    1
    12    22    18    1
    13     4     3   ar
    14     4     5   ar
    15     3     2   ar
    16    18    19   ar
    17    18    17   ar
    18    19    20   ar
    19     2     8    1
    20     2     1   ar
    21     5    17    1
    22     5     6   ar
    23    17    16   ar
    24    20    23    1
    25    20    21   ar
    26     1     6   ar
    27     1     9    1
    28    16    21   ar
    29    16    24    1
    30    10     9    1
    31    24    25    1
