@<TRIPOS>MOLECULE
mol_data/opt/m06hf/geoms/mol2/6fl6fl6fl.out
 44 46 0 0 0
SMALL
GASTEIGER

@<TRIPOS>ATOM
      1 C          -4.5805   -2.2835   -0.0000 C.ar    1  LIG1        0.2130
      2 C          -3.1974   -2.4203   -0.0002 C.ar    1  LIG1        0.0033
      3 C          -2.4407   -1.2557   -0.0004 C.ar    1  LIG1       -0.0128
      4 C          -3.0541   -0.0069   -0.0003 C.ar    1  LIG1        0.1464
      5 C          -4.4672    0.0490   -0.0001 C.ar    1  LIG1        0.1215
      6 N          -5.1577   -1.0971    0.0000 N.ar    1  LIG1       -0.2092
      7 H          -1.3626   -1.3335   -0.0006 H       1  LIG1        0.0656
      8 H          -2.7258   -3.3933   -0.0003 H       1  LIG1        0.0672
      9 O          -5.4398   -3.3232    0.0001 O.3     1  LIG1       -0.4924
     10 H          -4.9706   -4.1639    0.0000 H       1  LIG1        0.2937
     11 O          -2.3529    1.1566   -0.0005 O.3     1  LIG1       -0.4930
     12 C          -0.9366    1.0970   -0.0011 C.3     1  LIG1        0.0789
     13 H          -0.6010    2.1304   -0.0012 H       1  LIG1        0.0660
     14 H          -0.5721    0.5912    0.8959 H       1  LIG1        0.0660
     15 H          -0.5729    0.5912   -0.8983 H       1  LIG1        0.0660
     16 C          -6.7022    1.2111   -0.0000 C.ar    1  LIG1        0.2226
     17 C          -5.2886    1.2878   -0.0000 C.ar    1  LIG1        0.0689
     18 C          -4.7498    2.5807    0.0001 C.ar    1  LIG1       -0.0034
     19 C          -5.5479    3.7116    0.0001 C.ar    1  LIG1        0.1470
     20 C          -6.9529    3.5520   -0.0000 C.ar    1  LIG1        0.1215
     21 N          -7.4429    2.3104   -0.0001 N.ar    1  LIG1       -0.2086
     22 H          -3.6799    2.6858    0.0001 H       1  LIG1        0.0663
     23 O          -7.3846    0.0778   -0.0000 O.3     1  LIG1       -0.4919
     24 H          -6.7209   -0.6687    0.0001 H       1  LIG1        0.2937
     25 O          -5.0201    4.9695    0.0002 O.3     1  LIG1       -0.4929
     26 C          -3.6128    5.1067    0.0003 C.3     1  LIG1        0.0789
     27 H          -3.4211    6.1766    0.0004 H       1  LIG1        0.0660
     28 H          -3.1796    4.6539    0.8964 H       1  LIG1        0.0660
     29 H          -3.1794    4.6540   -0.8957 H       1  LIG1        0.0660
     30 C          -9.3522    4.3384   -0.0000 C.ar    1  LIG1        0.2220
     31 C          -7.9621    4.6443   -0.0001 C.ar    1  LIG1        0.0688
     32 C          -7.6044    6.0032   -0.0002 C.ar    1  LIG1       -0.0040
     33 C          -8.5855    6.9762   -0.0002 C.ar    1  LIG1        0.1390
     34 C          -9.9202    6.5612   -0.0001 C.ar    1  LIG1        0.0730
     35 N         -10.2823    5.2947   -0.0000 N.ar    1  LIG1       -0.2172
     36 H          -6.5613    6.2677   -0.0003 H       1  LIG1        0.0663
     37 H         -10.7033    7.3115   -0.0001 H       1  LIG1        0.0868
     38 O          -9.8238    3.1008    0.0000 O.3     1  LIG1       -0.4919
     39 H          -9.0385    2.4810   -0.0001 H       1  LIG1        0.2937
     40 O          -8.3610    8.3223   -0.0003 O.3     1  LIG1       -0.4936
     41 C          -7.0158    8.7481   -0.0005 C.3     1  LIG1        0.0789
     42 H          -7.0455    9.8346   -0.0006 H       1  LIG1        0.0660
     43 H          -6.4953    8.3927    0.8934 H       1  LIG1        0.0660
     44 H          -6.4956    8.3925   -0.8946 H       1  LIG1        0.0660
@<TRIPOS>BOND
     1    15    12    1
     2    29    26    1
     3    44    41    1
     4    13    12    1
     5    12    11    1
     6    12    14    1
     7    42    41    1
     8     7     3    1
     9    41    40    1
    10    41    43    1
    11    11     4    1
    12     3     4   ar
    13     3     2   ar
    14     8     2    1
    15     4     5   ar
    16    40    33    1
    17    36    32    1
    18     2     1   ar
    19    33    32   ar
    20    33    34   ar
    21    32    31   ar
    22    34    37    1
    23    34    35   ar
    24    31    20    1
    25    31    30   ar
    26     5    17    1
    27     5     6   ar
    28    39    38    1
    29    21    20   ar
    30    21    16   ar
    31     1     6   ar
    32     1     9    1
    33    20    19   ar
    34    16    23    1
    35    16    17   ar
    36    30    35   ar
    37    30    38    1
    38    23    24    1
    39    17    18   ar
    40    10     9    1
    41    18    19   ar
    42    18    22    1
    43    19    25    1
    44    25    26    1
    45    26    27    1
    46    26    28    1
