@<TRIPOS>MOLECULE
mol_data/opt/m06hf/geoms/mol2/6fl6fl.out
 30 31 0 0 0
SMALL
GASTEIGER

@<TRIPOS>ATOM
      1 C          -4.5727   -2.1856   -0.0001 C.ar    1  LIG1        0.2130
      2 C          -3.1877   -2.2791   -0.0001 C.ar    1  LIG1        0.0033
      3 C          -2.4711   -1.0890   -0.0002 C.ar    1  LIG1       -0.0128
      4 C          -3.1240    0.1388   -0.0002 C.ar    1  LIG1        0.1464
      5 C          -4.5414    0.1524   -0.0002 C.ar    1  LIG1        0.1215
      6 N          -5.1878   -1.0186   -0.0002 N.ar    1  LIG1       -0.2092
      7 H          -1.3910   -1.1321   -0.0001 H       1  LIG1        0.0656
      8 H          -2.6830   -3.2356   -0.0001 H       1  LIG1        0.0672
      9 O          -5.3970   -3.2557   -0.0001 O.3     1  LIG1       -0.4924
     10 H          -4.8945   -4.0768   -0.0000 H       1  LIG1        0.2937
     11 O          -2.4521    1.3197   -0.0002 O.3     1  LIG1       -0.4930
     12 C          -1.0364    1.2976   -0.0002 C.3     1  LIG1        0.0789
     13 H          -0.7287    2.3395   -0.0002 H       1  LIG1        0.0660
     14 H          -0.6583    0.8017    0.8966 H       1  LIG1        0.0660
     15 H          -0.6583    0.8016   -0.8970 H       1  LIG1        0.0660
     16 C          -6.8226    1.2438   -0.0001 C.ar    1  LIG1        0.2220
     17 C          -5.4058    1.3670   -0.0002 C.ar    1  LIG1        0.0688
     18 C          -4.8783    2.6706   -0.0004 C.ar    1  LIG1       -0.0040
     19 C          -5.7277    3.7610   -0.0004 C.ar    1  LIG1        0.1390
     20 C          -7.1038    3.5203   -0.0002 C.ar    1  LIG1        0.0730
     21 N          -7.6227    2.3096   -0.0000 N.ar    1  LIG1       -0.2172
     22 H          -3.8111    2.8033   -0.0006 H       1  LIG1        0.0663
     23 H          -7.7850    4.3637   -0.0002 H       1  LIG1        0.0868
     24 O          -7.4554    0.0768    0.0001 O.3     1  LIG1       -0.4919
     25 H          -6.7663   -0.6403   -0.0000 H       1  LIG1        0.2937
     26 O          -5.3352    5.0666   -0.0006 O.3     1  LIG1       -0.4936
     27 C          -3.9468    5.3209   -0.0009 C.3     1  LIG1        0.0789
     28 H          -3.8385    6.4024   -0.0010 H       1  LIG1        0.0660
     29 H          -3.4752    4.9027    0.8933 H       1  LIG1        0.0660
     30 H          -3.4756    4.9026   -0.8952 H       1  LIG1        0.0660
@<TRIPOS>BOND
     1    15    12    1
     2    30    27    1
     3    28    27    1
     4    27    26    1
     5    27    29    1
     6    26    19    1
     7    22    18    1
     8    18    19   ar
     9    18    17   ar
    10    19    20   ar
    11    13    12    1
    12    17     5    1
    13    17    16   ar
    14    11    12    1
    15    11     4    1
    16     5     4   ar
    17     5     6   ar
    18    20    23    1
    19    20    21   ar
    20    12    14    1
    21     4     3   ar
    22     6     1   ar
    23     3     7    1
    24     3     2   ar
    25     2     1   ar
    26     2     8    1
    27     1     9    1
    28     9    10    1
    29    16    21   ar
    30    16    24    1
    31    25    24    1
