@<TRIPOS>MOLECULE
mol_data/opt/m06hf/geoms/mol2/6fl6fl6fl6fl.out
 58 61 0 0 0
SMALL
GASTEIGER

@<TRIPOS>ATOM
      1 C          -4.6345   -2.3863   -0.0009 C.ar    1  LIG1        0.2130
      2 C          -3.2571   -2.5731   -0.0008 C.ar    1  LIG1        0.0033
      3 C          -2.4577   -1.4384   -0.0004 C.ar    1  LIG1       -0.0128
      4 C          -3.0248   -0.1668   -0.0003 C.ar    1  LIG1        0.1464
      5 C          -4.4331   -0.0601   -0.0005 C.ar    1  LIG1        0.1215
      6 N          -5.1671   -1.1795   -0.0007 N.ar    1  LIG1       -0.2092
      7 H          -1.3835   -1.5567   -0.0003 H       1  LIG1        0.0656
      8 H          -2.8212   -3.5627   -0.0009 H       1  LIG1        0.0672
      9 O          -5.5296   -3.3943   -0.0011 O.3     1  LIG1       -0.4924
     10 H          -5.0927   -4.2522   -0.0012 H       1  LIG1        0.2937
     11 O          -2.2788    0.9685    0.0001 O.3     1  LIG1       -0.4930
     12 C          -0.8663    0.8478    0.0003 C.3     1  LIG1        0.0789
     13 H          -0.4841    1.8646    0.0007 H       1  LIG1        0.0660
     14 H          -0.5260    0.3259    0.8975 H       1  LIG1        0.0660
     15 H          -0.5256    0.3264   -0.8969 H       1  LIG1        0.0660
     16 C          -6.6271    1.1806   -0.0002 C.ar    1  LIG1        0.2226
     17 C          -5.2090    1.2088   -0.0004 C.ar    1  LIG1        0.0689
     18 C          -4.6230    2.4790   -0.0004 C.ar    1  LIG1       -0.0034
     19 C          -5.3813    3.6388   -0.0002 C.ar    1  LIG1        0.1470
     20 C          -6.7871    3.5262   -0.0000 C.ar    1  LIG1        0.1215
     21 N          -7.3283    2.3054   -0.0001 N.ar    1  LIG1       -0.2086
     22 H          -3.5497    2.5483   -0.0005 H       1  LIG1        0.0663
     23 O          -7.3482    0.0732   -0.0003 O.3     1  LIG1       -0.4919
     24 H          -6.7109   -0.6973   -0.0005 H       1  LIG1        0.2937
     25 O          -4.8162    4.8803   -0.0003 O.3     1  LIG1       -0.4929
     26 C          -3.4038    4.9755   -0.0010 C.3     1  LIG1        0.0789
     27 H          -3.1819    6.0396   -0.0011 H       1  LIG1        0.0660
     28 H          -2.9847    4.5106    0.8949 H       1  LIG1        0.0660
     29 H          -2.9856    4.5106   -0.8972 H       1  LIG1        0.0660
     30 C          -9.1471    4.3968    0.0004 C.ar    1  LIG1        0.2226
     31 C          -7.7536    4.6514    0.0002 C.ar    1  LIG1        0.0689
     32 C          -7.3784    6.0000    0.0002 C.ar    1  LIG1       -0.0034
     33 C          -8.3109    7.0228    0.0005 C.ar    1  LIG1        0.1470
     34 C          -9.6849    6.6893    0.0006 C.ar    1  LIG1        0.1215
     35 N         -10.0191    5.3968    0.0006 N.ar    1  LIG1       -0.2086
     36 H          -6.3290    6.2348    0.0002 H       1  LIG1        0.0663
     37 O          -9.6767    3.1877    0.0003 O.3     1  LIG1       -0.4919
     38 H          -8.9155    2.5312    0.0002 H       1  LIG1        0.2937
     39 O          -7.9421    8.3373    0.0006 O.3     1  LIG1       -0.4929
     40 C          -6.5619    8.6435    0.0007 C.3     1  LIG1        0.0789
     41 H          -6.5006    9.7288    0.0008 H       1  LIG1        0.0660
     42 H          -6.0769    8.2459    0.8963 H       1  LIG1        0.0660
     43 H          -6.0768    8.2462   -0.8951 H       1  LIG1        0.0660
     44 C         -12.1635    7.1741    0.0016 C.ar    1  LIG1        0.2220
     45 C         -10.8211    7.6492    0.0009 C.ar    1  LIG1        0.0688
     46 C         -10.6333    9.0412    0.0006 C.ar    1  LIG1       -0.0040
     47 C         -11.7267    9.8865    0.0011 C.ar    1  LIG1        0.1390
     48 C         -12.9999    9.3109    0.0019 C.ar    1  LIG1        0.0730
     49 N         -13.2040    8.0093    0.0021 N.ar    1  LIG1       -0.2172
     50 H          -9.6303    9.4317    0.0000 H       1  LIG1        0.0663
     51 H         -13.8692    9.9592    0.0024 H       1  LIG1        0.0868
     52 O         -12.4776    5.8879    0.0018 O.3     1  LIG1       -0.4919
     53 H         -11.6198    5.3703    0.0014 H       1  LIG1        0.2937
     54 O         -11.6690   11.2505    0.0009 O.3     1  LIG1       -0.4936
     55 C         -10.3862   11.8380   -0.0004 C.3     1  LIG1        0.0789
     56 H         -10.5487   12.9128   -0.0005 H       1  LIG1        0.0660
     57 H          -9.8249   11.5495    0.8929 H       1  LIG1        0.0660
     58 H          -9.8267   11.5491   -0.8947 H       1  LIG1        0.0660
@<TRIPOS>BOND
     1    29    26    1
     2    15    12    1
     3    43    40    1
     4    58    55    1
     5    10     9    1
     6     9     1    1
     7    27    26    1
     8    26    25    1
     9    26    28    1
    10     8     2    1
    11     1     2   ar
    12     1     6   ar
    13     2     3   ar
    14     6     5   ar
    15    22    18    1
    16    24    23    1
    17    56    55    1
    18     5    17    1
    19     5     4   ar
    20     3     7    1
    21     3     4   ar
    22    55    54    1
    23    55    57    1
    24    18    17   ar
    25    18    19   ar
    26    17    16   ar
    27    25    19    1
    28     4    11    1
    29    23    16    1
    30    19    20   ar
    31    16    21   ar
    32    21    20   ar
    33    20    31    1
    34    50    46    1
    35    11    12    1
    36    36    32    1
    37    31    32   ar
    38    31    30   ar
    39    38    37    1
    40    32    33   ar
    41    12    13    1
    42    12    14    1
    43    37    30    1
    44    30    35   ar
    45    33    39    1
    46    33    34   ar
    47    35    34   ar
    48    39    40    1
    49    34    45    1
    50    46    45   ar
    51    46    47   ar
    52    40    41    1
    53    40    42    1
    54    54    47    1
    55    45    44   ar
    56    47    48   ar
    57    53    52    1
    58    44    52    1
    59    44    49   ar
    60    48    49   ar
    61    48    51    1
