@<TRIPOS>MOLECULE
mol_data/opt/m06hf/geoms/mol2/6ga.out
 12 12 0 0 0
SMALL
GASTEIGER

@<TRIPOS>ATOM
      1 C          -4.5237   -1.9558   -0.0059 C.ar    1  LIG1        0.0939
      2 C          -3.1257   -1.9593   -0.0097 C.ar    1  LIG1       -0.0300
      3 C          -2.4739   -0.7342   -0.0041 C.ar    1  LIG1       -0.0578
      4 C          -3.2251    0.4376    0.0012 C.ar    1  LIG1       -0.0435
      5 C          -4.6106    0.3226    0.0001 C.ar    1  LIG1        0.0288
      6 N          -5.2490   -0.8462   -0.0025 N.ar    1  LIG1       -0.2490
      7 H          -1.3922   -0.6969   -0.0058 H       1  LIG1        0.0619
      8 H          -2.5716   -2.8871   -0.0180 H       1  LIG1        0.0644
      9 H          -5.2400    1.2040    0.0022 H       1  LIG1        0.0830
     10 S          -5.5054   -3.4413   -0.0146 S.3     1  LIG1       -0.1234
     11 H          -4.4771   -4.2938    0.0509 H       1  LIG1        0.1086
     12 H          -2.7568    1.4115    0.0052 H       1  LIG1        0.0633
@<TRIPOS>BOND
     1     8     2    1
     2    10     1    1
     3    10    11    1
     4     2     1   ar
     5     2     3   ar
     6     1     6   ar
     7     7     3    1
     8     3     4   ar
     9     6     5   ar
    10     5     4   ar
    11     5     9    1
    12     4    12    1
