@<TRIPOS>MOLECULE
mol_data/opt/m06hf/geoms/mol2/6ga6ga-6ga6ga.out
 42 45 0 0 0
SMALL
GASTEIGER

@<TRIPOS>ATOM
      1 C          -3.8747   -2.1054    0.3614 C.ar    1  LIG1        0.0946
      2 C          -2.5642   -1.9297   -0.0912 C.ar    1  LIG1       -0.0300
      3 C          -2.2073   -0.6721   -0.5541 C.ar    1  LIG1       -0.0572
      4 C          -3.1398    0.3606   -0.5335 C.ar    1  LIG1       -0.0355
      5 C          -4.4140    0.0936   -0.0313 C.ar    1  LIG1        0.0748
      6 N          -4.7620   -1.1219    0.3945 N.ar    1  LIG1       -0.2406
      7 H          -1.2099   -0.4979   -0.9356 H       1  LIG1        0.0619
      8 H          -1.8589   -2.7486   -0.0890 H       1  LIG1        0.0644
      9 S          -4.5159   -3.6525    0.9571 S.3     1  LIG1       -0.1234
     10 H          -3.4764   -4.4010    0.5735 H       1  LIG1        0.1086
     11 H          -2.8986    1.3411   -0.9181 H       1  LIG1        0.0639
     12 C          -6.7900    1.0513   -0.2861 C.ar    1  LIG1        0.1038
     13 C          -5.4277    1.1870    0.0537 C.ar    1  LIG1        0.0320
     14 C          -5.0113    2.4460    0.4845 C.ar    1  LIG1       -0.0480
     15 C          -5.8916    3.5175    0.5155 C.ar    1  LIG1       -0.0349
     16 C          -7.2011    3.2987    0.0870 C.ar    1  LIG1        0.0748
     17 N          -7.6181    2.0901   -0.2820 N.ar    1  LIG1       -0.2400
     18 H          -3.9891    2.5767    0.8186 H       1  LIG1        0.0626
     19 S          -7.5981   -0.4343   -0.8158 S.3     1  LIG1       -0.1227
     20 H          -6.6661   -1.2743   -0.3504 H       1  LIG1        0.1086
     21 H          -5.5837    4.4854    0.8840 H       1  LIG1        0.0639
     22 C          -9.5277    4.3576    0.3933 C.ar    1  LIG1        0.1038
     23 C          -8.1694    4.4325    0.0191 C.ar    1  LIG1        0.0320
     24 C          -7.7117    5.6662   -0.4423 C.ar    1  LIG1       -0.0480
     25 C          -8.5505    6.7701   -0.4787 C.ar    1  LIG1       -0.0349
     26 C          -9.8612    6.6087   -0.0292 C.ar    1  LIG1        0.0748
     27 N         -10.3169    5.4265    0.3785 N.ar    1  LIG1       -0.2400
     28 H          -6.6920    5.7505   -0.7985 H       1  LIG1        0.0626
     29 S         -10.3717    2.9175    0.9911 S.3     1  LIG1       -0.1227
     30 H          -9.5380    2.0271    0.4387 H       1  LIG1        0.1086
     31 H          -8.2144    7.7196   -0.8698 H       1  LIG1        0.0639
     32 C         -12.1279    7.7471   -0.4443 C.ar    1  LIG1        0.1031
     33 C         -10.7910    7.7764    0.0055 C.ar    1  LIG1        0.0320
     34 C         -10.3032    8.9938    0.4788 C.ar    1  LIG1       -0.0486
     35 C         -11.1044   10.1275    0.4654 C.ar    1  LIG1       -0.0429
     36 C         -12.3906    9.9948   -0.0430 C.ar    1  LIG1        0.0289
     37 N         -12.8846    8.8400   -0.4763 N.ar    1  LIG1       -0.2483
     38 H          -9.2930    9.0406    0.8675 H       1  LIG1        0.0625
     39 H         -13.0589   10.8456   -0.0991 H       1  LIG1        0.0830
     40 S         -12.9719    6.3296   -1.0993 S.3     1  LIG1       -0.1228
     41 H         -12.1863    5.4073   -0.5301 H       1  LIG1        0.1086
     42 H         -10.7466   11.0782    0.8327 H       1  LIG1        0.0633
@<TRIPOS>BOND
     1    40    41    1
     2    40    32    1
     3     7     3    1
     4    11     4    1
     5    31    25    1
     6    19    20    1
     7    19    12    1
     8    28    24    1
     9     3     4   ar
    10     3     2   ar
    11     4     5   ar
    12    25    24   ar
    13    25    26   ar
    14    37    32   ar
    15    37    36   ar
    16    32    33   ar
    17    24    23   ar
    18    12    17   ar
    19    12    13   ar
    20    17    16   ar
    21    39    36    1
    22     2     8    1
    23     2     1   ar
    24    36    35   ar
    25     5    13    1
    26     5     6   ar
    27    26    33    1
    28    26    27   ar
    29    33    34   ar
    30    23    16    1
    31    23    22   ar
    32    13    14   ar
    33    16    15   ar
    34     1     6   ar
    35     1     9    1
    36    27    22   ar
    37    22    29    1
    38    30    29    1
    39    35    34   ar
    40    35    42    1
    41    34    38    1
    42    14    15   ar
    43    14    18    1
    44    15    21    1
    45    10     9    1
