@<TRIPOS>MOLECULE
mol_data/opt/m06hf/geoms/mol2/6ga6ga6ga-6ga-.out
 42 45 0 0 0
SMALL
GASTEIGER

@<TRIPOS>ATOM
      1 C          -3.8760   -2.1061   -0.3719 C.ar    1  LIG1        0.0946
      2 C          -2.5631   -1.9289    0.0729 C.ar    1  LIG1       -0.0300
      3 C          -2.2038   -0.6699    0.5303 C.ar    1  LIG1       -0.0572
      4 C          -3.1366    0.3625    0.5119 C.ar    1  LIG1       -0.0355
      5 C          -4.4136    0.0940    0.0175 C.ar    1  LIG1        0.0748
      6 N          -4.7637   -1.1228   -0.4029 N.ar    1  LIG1       -0.2406
      7 H          -1.2044   -0.4945    0.9058 H       1  LIG1        0.0619
      8 H          -1.8577   -2.7477    0.0692 H       1  LIG1        0.0644
      9 S          -4.5203   -3.6549   -0.9597 S.3     1  LIG1       -0.1234
     10 H          -3.4786   -4.4023   -0.5796 H       1  LIG1        0.1086
     11 H          -2.8934    1.3442    0.8924 H       1  LIG1        0.0639
     12 C          -6.7883    1.0521    0.2823 C.ar    1  LIG1        0.1038
     13 C          -5.4278    1.1870   -0.0651 C.ar    1  LIG1        0.0320
     14 C          -5.0139    2.4449   -0.5015 C.ar    1  LIG1       -0.0480
     15 C          -5.8945    3.5162   -0.5307 C.ar    1  LIG1       -0.0349
     16 C          -7.2016    3.2984   -0.0947 C.ar    1  LIG1        0.0748
     17 N          -7.6166    2.0908    0.2798 N.ar    1  LIG1       -0.2400
     18 H          -3.9936    2.5748   -0.8414 H       1  LIG1        0.0626
     19 S          -7.5935   -0.4322    0.8202 S.3     1  LIG1       -0.1227
     20 H          -6.6638   -1.2733    0.3522 H       1  LIG1        0.1086
     21 H          -5.5886    4.4831   -0.9034 H       1  LIG1        0.0639
     22 C          -9.5299    4.3564   -0.3914 C.ar    1  LIG1        0.1038
     23 C          -8.1697    4.4324   -0.0247 C.ar    1  LIG1        0.0320
     24 C          -7.7096    5.6673    0.4309 C.ar    1  LIG1       -0.0480
     25 C          -8.5483    6.7712    0.4688 C.ar    1  LIG1       -0.0349
     26 C          -9.8613    6.6085    0.0268 C.ar    1  LIG1        0.0748
     27 N         -10.3191    5.4252   -0.3752 N.ar    1  LIG1       -0.2400
     28 H          -6.6880    5.7527    0.7814 H       1  LIG1        0.0626
     29 S         -10.3771    2.9145   -0.9808 S.3     1  LIG1       -0.1227
     30 H          -9.5405    2.0257   -0.4304 H       1  LIG1        0.1086
     31 H          -8.2102    7.7219    0.8555 H       1  LIG1        0.0639
     32 C         -12.1259    7.7479    0.4510 C.ar    1  LIG1        0.1031
     33 C         -10.7915    7.7760   -0.0062 C.ar    1  LIG1        0.0320
     34 C         -10.3064    8.9921   -0.4856 C.ar    1  LIG1       -0.0486
     35 C         -11.1078   10.1257   -0.4711 C.ar    1  LIG1       -0.0429
     36 C         -12.3911    9.9943    0.0447 C.ar    1  LIG1        0.0289
     37 N         -12.8825    8.8408    0.4840 N.ar    1  LIG1       -0.2483
     38 H          -9.2983    9.0379   -0.8800 H       1  LIG1        0.0625
     39 H         -13.0592   10.8453    0.1020 H       1  LIG1        0.0830
     40 S         -12.9660    6.3321    1.1148 S.3     1  LIG1       -0.1228
     41 H         -12.1833    5.4084    0.5440 H       1  LIG1        0.1086
     42 H         -10.7520   11.0754   -0.8431 H       1  LIG1        0.0633
@<TRIPOS>BOND
     1    29    30    1
     2    29    22    1
     3     9    10    1
     4     9     1    1
     5    21    15    1
     6    38    34    1
     7    42    35    1
     8    18    14    1
     9    15    14   ar
    10    15    16   ar
    11    14    13   ar
    12    34    35   ar
    13    34    33   ar
    14    35    36   ar
    15     6     1   ar
    16     6     5   ar
    17    22    27   ar
    18    22    23   ar
    19    27    26   ar
    20     1     2   ar
    21    16    23    1
    22    16    17   ar
    23    13     5    1
    24    13    12   ar
    25    23    24   ar
    26    33    26    1
    27    33    32   ar
    28     5     4   ar
    29    26    25   ar
    30    36    39    1
    31    36    37   ar
    32     8     2    1
    33     2     3   ar
    34    17    12   ar
    35    12    19    1
    36    20    19    1
    37    24    25   ar
    38    24    28    1
    39    32    37   ar
    40    32    40    1
    41    25    31    1
    42     4     3   ar
    43     4    11    1
    44     3     7    1
    45    41    40    1
