@<TRIPOS>MOLECULE
mol_data/opt/m06hf/geoms/mol2/6ga6ga6ga-.out
 32 34 0 0 0
SMALL
GASTEIGER

@<TRIPOS>ATOM
      1 C          -4.1678   -2.1130   -0.2844 C.ar    1  LIG1        0.0946
      2 C          -2.8125   -2.0027    0.0396 C.ar    1  LIG1       -0.0300
      3 C          -2.3350   -0.7477    0.3874 C.ar    1  LIG1       -0.0572
      4 C          -3.1991    0.3431    0.3882 C.ar    1  LIG1       -0.0355
      5 C          -4.5302    0.1342    0.0273 C.ar    1  LIG1        0.0748
      6 N          -4.9927   -1.0758   -0.2925 N.ar    1  LIG1       -0.2406
      7 H          -1.2970   -0.6211    0.6654 H       1  LIG1        0.0619
      8 H          -2.1642   -2.8672    0.0289 H       1  LIG1        0.0644
      9 S          -4.9619   -3.6383   -0.7288 S.3     1  LIG1       -0.1234
     10 H          -3.8977   -4.4234   -0.5352 H       1  LIG1        0.1086
     11 H          -2.8621    1.3261    0.6850 H       1  LIG1        0.0639
     12 C          -6.7973    1.2619    0.4664 C.ar    1  LIG1        0.1038
     13 C          -5.4795    1.2853   -0.0300 C.ar    1  LIG1        0.0320
     14 C          -5.0458    2.4818   -0.6005 C.ar    1  LIG1       -0.0480
     15 C          -5.8681    3.5983   -0.6285 C.ar    1  LIG1       -0.0349
     16 C          -7.1358    3.4936   -0.0524 C.ar    1  LIG1        0.0748
     17 N          -7.5665    2.3444    0.4622 N.ar    1  LIG1       -0.2400
     18 H          -4.0598    2.5249   -1.0471 H       1  LIG1        0.0626
     19 S          -7.6057   -0.1232    1.2247 S.3     1  LIG1       -0.1227
     20 H          -6.8546   -1.0628    0.6408 H       1  LIG1        0.1086
     21 H          -5.5522    4.5138   -1.1077 H       1  LIG1        0.0639
     22 C          -9.4338    4.6452   -0.2266 C.ar    1  LIG1        0.1031
     23 C          -8.0409    4.6803    0.0023 C.ar    1  LIG1        0.0320
     24 C          -7.4727    5.9258    0.2722 C.ar    1  LIG1       -0.0486
     25 C          -8.2510    7.0745    0.2725 C.ar    1  LIG1       -0.0429
     26 C          -9.6035    6.9286   -0.0114 C.ar    1  LIG1        0.0289
     27 N         -10.1721    5.7516   -0.2444 N.ar    1  LIG1       -0.2483
     28 H          -6.4150    5.9844    0.4983 H       1  LIG1        0.0625
     29 H         -10.2633    7.7874   -0.0446 H       1  LIG1        0.0830
     30 S         -10.4042    3.2021   -0.5784 S.3     1  LIG1       -0.1228
     31 H          -9.4995    2.3096   -0.1605 H       1  LIG1        0.1086
     32 H          -7.8273    8.0452    0.4848 H       1  LIG1        0.0633
@<TRIPOS>BOND
     1    21    15    1
     2    18    14    1
     3     9    10    1
     4     9     1    1
     5    15    14   ar
     6    15    16   ar
     7    14    13   ar
     8    30    22    1
     9    30    31    1
    10     6     1   ar
    11     6     5   ar
    12     1     2   ar
    13    27    22   ar
    14    27    26   ar
    15    22    23   ar
    16    16    23    1
    17    16    17   ar
    18    29    26    1
    19    13     5    1
    20    13    12   ar
    21    26    25   ar
    22    23    24   ar
    23     5     4   ar
    24     8     2    1
    25     2     3   ar
    26    24    25   ar
    27    24    28    1
    28    25    32    1
    29     3     4   ar
    30     3     7    1
    31     4    11    1
    32    17    12   ar
    33    12    19    1
    34    20    19    1
