@<TRIPOS>MOLECULE
mol_data/opt/m06hf/geoms/mol2/6ga6ga-6ga-6ga-.out
 42 45 0 0 0
SMALL
GASTEIGER

@<TRIPOS>ATOM
      1 C          -3.9944   -2.1638    0.1521 C.ar    1  LIG1        0.0946
      2 C          -2.6099   -1.9777    0.1001 C.ar    1  LIG1       -0.0300
      3 C          -2.1399   -0.6787   -0.0239 C.ar    1  LIG1       -0.0572
      4 C          -3.0419    0.3805   -0.0714 C.ar    1  LIG1       -0.0355
      5 C          -4.4038    0.0929    0.0120 C.ar    1  LIG1        0.0748
      6 N          -4.8559   -1.1579    0.1133 N.ar    1  LIG1       -0.2406
      7 H          -1.0760   -0.4916   -0.0879 H       1  LIG1        0.0619
      8 H          -1.9323   -2.8183    0.1489 H       1  LIG1        0.0644
      9 S          -4.7812   -3.7494    0.3000 S.3     1  LIG1       -0.1234
     10 H          -3.6787   -4.4828    0.1138 H       1  LIG1        0.1086
     11 H          -2.7049    1.4000   -0.1951 H       1  LIG1        0.0639
     12 C          -6.6101    1.1874   -0.7214 C.ar    1  LIG1        0.1038
     13 C          -5.4089    1.1975    0.0143 C.ar    1  LIG1        0.0320
     14 C          -5.1606    2.3267    0.7933 C.ar    1  LIG1       -0.0480
     15 C          -6.0425    3.3975    0.8011 C.ar    1  LIG1       -0.0349
     16 C          -7.1744    3.3201   -0.0129 C.ar    1  LIG1        0.0748
     17 N          -7.4310    2.2312   -0.7339 N.ar    1  LIG1       -0.2400
     18 H          -4.2779    2.3484    1.4212 H       1  LIG1        0.0626
     19 S          -7.1884   -0.1272   -1.7625 S.3     1  LIG1       -0.1227
     20 H          -6.4638   -1.0919   -1.1843 H       1  LIG1        0.1086
     21 H          -5.8771    4.2493    1.4447 H       1  LIG1        0.0639
     22 C          -9.5369    4.3344   -0.1955 C.ar    1  LIG1        0.1038
     23 C          -8.1349    4.4610   -0.0879 C.ar    1  LIG1        0.0320
     24 C          -7.6301    5.7590   -0.0011 C.ar    1  LIG1       -0.0480
     25 C          -8.4738    6.8587    0.0191 C.ar    1  LIG1       -0.0349
     26 C          -9.8482    6.6273   -0.0538 C.ar    1  LIG1        0.0748
     27 N         -10.3380    5.3960   -0.1651 N.ar    1  LIG1       -0.2400
     28 H          -6.5582    5.9056    0.0473 H       1  LIG1        0.0626
     29 S         -10.4664    2.8341   -0.3305 S.3     1  LIG1       -0.1227
     30 H          -9.4179    2.0320   -0.5525 H       1  LIG1        0.1086
     31 H          -8.0850    7.8617    0.1193 H       1  LIG1        0.0639
     32 C         -12.0039    7.8052    0.7102 C.ar    1  LIG1        0.1031
     33 C         -10.8067    7.7733   -0.0361 C.ar    1  LIG1        0.0320
     34 C         -10.4900    8.9093   -0.7805 C.ar    1  LIG1       -0.0486
     35 C         -11.3109   10.0281   -0.7441 C.ar    1  LIG1       -0.0429
     36 C         -12.4399    9.9667    0.0634 C.ar    1  LIG1        0.0289
     37 N         -12.7754    8.8866    0.7606 N.ar    1  LIG1       -0.2483
     38 H          -9.6007    8.9025   -1.3992 H       1  LIG1        0.0625
     39 H         -13.1109   10.8128    0.1505 H       1  LIG1        0.0830
     40 S         -12.6270    6.4893    1.7257 S.3     1  LIG1       -0.1228
     41 H         -11.9154    5.5171    1.1454 H       1  LIG1        0.1086
     42 H         -11.0857   10.9149   -1.3184 H       1  LIG1        0.0633
@<TRIPOS>BOND
     1    19    20    1
     2    19    12    1
     3    38    34    1
     4    42    35    1
     5    34    35   ar
     6    34    33   ar
     7    35    36   ar
     8    17    12   ar
     9    17    16   ar
    10    12    13   ar
    11    30    29    1
    12    29    22    1
    13    22    27   ar
    14    22    23   ar
    15    11     4    1
    16    27    26   ar
    17     7     3    1
    18    23    16    1
    19    23    24   ar
    20     4     3   ar
    21     4     5   ar
    22    26    33    1
    23    26    25   ar
    24    33    32   ar
    25     3     2   ar
    26    16    15   ar
    27    24    25   ar
    28    24    28    1
    29     5    13    1
    30     5     6   ar
    31    13    14   ar
    32    25    31    1
    33    36    39    1
    34    36    37   ar
    35     2     8    1
    36     2     1   ar
    37     6     1   ar
    38    10     9    1
    39     1     9    1
    40    32    37   ar
    41    32    40    1
    42    14    15   ar
    43    14    18    1
    44    15    21    1
    45    41    40    1
