@<TRIPOS>MOLECULE
mol_data/opt/m06hf/geoms/mol2/6ga6ga-6ga6ga-.out
 42 45 0 0 0
SMALL
GASTEIGER

@<TRIPOS>ATOM
      1 C          -3.8788   -2.1082    0.3587 C.ar    1  LIG1        0.0946
      2 C          -2.5624   -1.9284   -0.0746 C.ar    1  LIG1       -0.0300
      3 C          -2.1995   -0.6667   -0.5217 C.ar    1  LIG1       -0.0572
      4 C          -3.1325    0.3657   -0.5045 C.ar    1  LIG1       -0.0355
      5 C          -4.4133    0.0942   -0.0218 C.ar    1  LIG1        0.0748
      6 N          -4.7667   -1.1250    0.3886 N.ar    1  LIG1       -0.2406
      7 H          -1.1972   -0.4891   -0.8882 H       1  LIG1        0.0619
      8 H          -1.8570   -2.7472   -0.0702 H       1  LIG1        0.0644
      9 S          -4.5277   -3.6604    0.9323 S.3     1  LIG1       -0.1234
     10 H          -3.4829   -4.4055    0.5560 H       1  LIG1        0.1086
     11 H          -2.8864    1.3495   -0.8773 H       1  LIG1        0.0639
     12 C          -6.7859    1.0539   -0.2997 C.ar    1  LIG1        0.1038
     13 C          -5.4282    1.1867    0.0592 C.ar    1  LIG1        0.0320
     14 C          -5.0178    2.4420    0.5064 C.ar    1  LIG1       -0.0480
     15 C          -5.8987    3.5131    0.5350 C.ar    1  LIG1       -0.0349
     16 C          -7.2023    3.2979    0.0873 C.ar    1  LIG1        0.0748
     17 N          -7.6142    2.0925   -0.2976 N.ar    1  LIG1       -0.2400
     18 H          -4.0002    2.5698    0.8551 H       1  LIG1        0.0626
     19 S          -7.5866   -0.4272   -0.8529 S.3     1  LIG1       -0.1227
     20 H          -6.6608   -1.2711   -0.3824 H       1  LIG1        0.1086
     21 H          -5.5958    4.4778    0.9159 H       1  LIG1        0.0639
     22 C          -9.5330    4.3540    0.3718 C.ar    1  LIG1        0.1038
     23 C          -8.1698    4.4322    0.0164 C.ar    1  LIG1        0.0320
     24 C          -7.7062    5.6699   -0.4282 C.ar    1  LIG1       -0.0480
     25 C          -8.5447    6.7740   -0.4661 C.ar    1  LIG1       -0.0349
     26 C          -9.8612    6.6087   -0.0355 C.ar    1  LIG1        0.0748
     27 N         -10.3221    5.4230    0.3558 N.ar    1  LIG1       -0.2400
     28 H          -6.6819    5.7574   -0.7700 H       1  LIG1        0.0626
     29 S         -10.3847    2.9087    0.9458 S.3     1  LIG1       -0.1227
     30 H          -9.5436    2.0232    0.3969 H       1  LIG1        0.1086
     31 H          -8.2035    7.7269   -0.8444 H       1  LIG1        0.0639
     32 C         -12.1223    7.7505   -0.4709 C.ar    1  LIG1        0.1031
     33 C         -10.7916    7.7759   -0.0030 C.ar    1  LIG1        0.0320
     34 C         -10.3104    8.9892    0.4874 C.ar    1  LIG1       -0.0486
     35 C         -11.1117   10.1228    0.4732 C.ar    1  LIG1       -0.0429
     36 C         -12.3909    9.9945   -0.0534 C.ar    1  LIG1        0.0289
     37 N         -12.8788    8.8435   -0.5033 N.ar    1  LIG1       -0.2483
     38 H          -9.3055    9.0327    0.8900 H       1  LIG1        0.0625
     39 H         -13.0586   10.8457   -0.1109 H       1  LIG1        0.0830
     40 S         -12.9571    6.3386   -1.1495 S.3     1  LIG1       -0.1228
     41 H         -12.1790    5.4115   -0.5780 H       1  LIG1        0.1086
     42 H         -10.7589   11.0703    0.8537 H       1  LIG1        0.0633
@<TRIPOS>BOND
     1    40    41    1
     2    40    32    1
     3     7     3    1
     4    11     4    1
     5    19    20    1
     6    19    12    1
     7    31    25    1
     8    28    24    1
     9     3     4   ar
    10     3     2   ar
    11     4     5   ar
    12    37    32   ar
    13    37    36   ar
    14    32    33   ar
    15    25    24   ar
    16    25    26   ar
    17    24    23   ar
    18    12    17   ar
    19    12    13   ar
    20    17    16   ar
    21    39    36    1
    22     2     8    1
    23     2     1   ar
    24    36    35   ar
    25    26    33    1
    26    26    27   ar
    27     5    13    1
    28     5     6   ar
    29    33    34   ar
    30    23    16    1
    31    23    22   ar
    32    13    14   ar
    33    16    15   ar
    34    27    22   ar
    35     1     6   ar
    36     1     9    1
    37    22    29    1
    38    30    29    1
    39    35    34   ar
    40    35    42    1
    41    34    38    1
    42    14    15   ar
    43    14    18    1
    44    15    21    1
    45    10     9    1
