@<TRIPOS>MOLECULE
mol_data/opt/m06hf/geoms/mol2/6ga6ga-6ga-6ga.out
 42 45 0 0 0
SMALL
GASTEIGER

@<TRIPOS>ATOM
      1 C          -3.9972   -2.1654    0.1547 C.ar    1  LIG1        0.0946
      2 C          -2.6127   -1.9802    0.0972 C.ar    1  LIG1       -0.0300
      3 C          -2.1425   -0.6818   -0.0317 C.ar    1  LIG1       -0.0572
      4 C          -3.0440    0.3778   -0.0786 C.ar    1  LIG1       -0.0355
      5 C          -4.4058    0.0912    0.0104 C.ar    1  LIG1        0.0748
      6 N          -4.8583   -1.1590    0.1165 N.ar    1  LIG1       -0.2406
      7 H          -1.0788   -0.4955   -0.1001 H       1  LIG1        0.0619
      8 H          -1.9355   -2.8211    0.1457 H       1  LIG1        0.0644
      9 S          -4.7843   -3.7501    0.3095 S.3     1  LIG1       -0.1234
     10 H          -3.6830   -4.4846    0.1210 H       1  LIG1        0.1086
     11 H          -2.7068    1.3968   -0.2062 H       1  LIG1        0.0639
     12 C          -6.6140    1.1852   -0.7180 C.ar    1  LIG1        0.1038
     13 C          -5.4102    1.1964    0.0135 C.ar    1  LIG1        0.0320
     14 C          -5.1587    2.3273    0.7891 C.ar    1  LIG1       -0.0480
     15 C          -6.0399    3.3986    0.7973 C.ar    1  LIG1       -0.0349
     16 C          -7.1745    3.3200   -0.0127 C.ar    1  LIG1        0.0748
     17 N          -7.4343    2.2294   -0.7302 N.ar    1  LIG1       -0.2400
     18 H          -4.2738    2.3499    1.4138 H       1  LIG1        0.0626
     19 S          -7.1966   -0.1315   -1.7540 S.3     1  LIG1       -0.1227
     20 H          -6.4699   -1.0951   -1.1764 H       1  LIG1        0.1086
     21 H          -5.8718    4.2519    1.4384 H       1  LIG1        0.0639
     22 C          -9.5371    4.3352   -0.1896 C.ar    1  LIG1        0.1038
     23 C          -8.1346    4.4612   -0.0871 C.ar    1  LIG1        0.0320
     24 C          -7.6288    5.7592   -0.0053 C.ar    1  LIG1       -0.0480
     25 C          -8.4718    6.8594    0.0152 C.ar    1  LIG1       -0.0349
     26 C          -9.8465    6.6286   -0.0524 C.ar    1  LIG1        0.0748
     27 N         -10.3374    5.3973   -0.1590 N.ar    1  LIG1       -0.2400
     28 H          -6.5566    5.9052    0.0391 H       1  LIG1        0.0626
     29 S         -10.4678    2.8351   -0.3178 S.3     1  LIG1       -0.1227
     30 H          -9.4206    2.0318   -0.5411 H       1  LIG1        0.1086
     31 H          -8.0821    7.8624    0.1117 H       1  LIG1        0.0639
     32 C         -11.9987    7.8095    0.7166 C.ar    1  LIG1        0.1031
     33 C         -10.8044    7.7752   -0.0342 C.ar    1  LIG1        0.0320
     34 C         -10.4899    8.9091   -0.7826 C.ar    1  LIG1       -0.0486
     35 C         -11.3102   10.0283   -0.7461 C.ar    1  LIG1       -0.0429
     36 C         -12.4362    9.9695    0.0657 C.ar    1  LIG1        0.0289
     37 N         -12.7696    8.8914    0.7670 N.ar    1  LIG1       -0.2483
     38 H          -9.6029    8.9002   -1.4045 H       1  LIG1        0.0625
     39 H         -13.1066   10.8162    0.1531 H       1  LIG1        0.0830
     40 S         -12.6185    6.4966    1.7380 S.3     1  LIG1       -0.1228
     41 H         -11.9100    5.5225    1.1572 H       1  LIG1        0.1086
     42 H         -11.0868   10.9136   -1.3234 H       1  LIG1        0.0633
@<TRIPOS>BOND
     1    19    20    1
     2    19    12    1
     3    38    34    1
     4    42    35    1
     5    34    35   ar
     6    34    33   ar
     7    35    36   ar
     8    17    12   ar
     9    17    16   ar
    10    12    13   ar
    11    30    29    1
    12    29    22    1
    13    11     4    1
    14    22    27   ar
    15    22    23   ar
    16    27    26   ar
    17     7     3    1
    18    23    16    1
    19    23    24   ar
    20     4     3   ar
    21     4     5   ar
    22    26    33    1
    23    26    25   ar
    24    33    32   ar
    25     3     2   ar
    26    16    15   ar
    27    24    25   ar
    28    24    28    1
    29     5    13    1
    30     5     6   ar
    31    13    14   ar
    32    25    31    1
    33    36    39    1
    34    36    37   ar
    35     2     8    1
    36     2     1   ar
    37     6     1   ar
    38    10     9    1
    39     1     9    1
    40    32    37   ar
    41    32    40    1
    42    14    15   ar
    43    14    18    1
    44    15    21    1
    45    41    40    1
