@<TRIPOS>MOLECULE
mol_data/opt/m06hf/geoms/mol2/6ga6ga-6ga.out
 32 34 0 0 0
SMALL
GASTEIGER

@<TRIPOS>ATOM
      1 C          -4.1698   -2.1142    0.2766 C.ar    1  LIG1        0.0946
      2 C          -2.8114   -2.0018   -0.0330 C.ar    1  LIG1       -0.0300
      3 C          -2.3306   -0.7448   -0.3687 C.ar    1  LIG1       -0.0572
      4 C          -3.1949    0.3459   -0.3720 C.ar    1  LIG1       -0.0355
      5 C          -4.5295    0.1347   -0.0258 C.ar    1  LIG1        0.0748
      6 N          -4.9950   -1.0772    0.2823 N.ar    1  LIG1       -0.2406
      7 H          -1.2899   -0.6164   -0.6354 H       1  LIG1        0.0619
      8 H          -2.1630   -2.8663   -0.0208 H       1  LIG1        0.0644
      9 S          -4.9680   -3.6422    0.7039 S.3     1  LIG1       -0.1234
     10 H          -3.9018   -4.4261    0.5165 H       1  LIG1        0.1086
     11 H          -2.8551    1.3307   -0.6597 H       1  LIG1        0.0639
     12 C          -6.7923    1.2645   -0.4814 C.ar    1  LIG1        0.1038
     13 C          -5.4796    1.2853    0.0285 C.ar    1  LIG1        0.0320
     14 C          -5.0520    2.4785    0.6103 C.ar    1  LIG1       -0.0480
     15 C          -5.8748    3.5947    0.6364 C.ar    1  LIG1       -0.0349
     16 C          -7.1366    3.4931    0.0469 C.ar    1  LIG1        0.0748
     17 N          -7.5618    2.3468   -0.4788 N.ar    1  LIG1       -0.2400
     18 H          -4.0706    2.5192    1.0671 H       1  LIG1        0.0626
     19 S          -7.5927   -0.1163   -1.2558 S.3     1  LIG1       -0.1227
     20 H          -6.8472   -1.0592   -0.6698 H       1  LIG1        0.1086
     21 H          -5.5640    4.5075    1.1240 H       1  LIG1        0.0639
     22 C          -9.4365    4.6433    0.2043 C.ar    1  LIG1        0.1031
     23 C          -8.0414    4.6800   -0.0102 C.ar    1  LIG1        0.0320
     24 C          -7.4707    5.9271   -0.2671 C.ar    1  LIG1       -0.0486
     25 C          -8.2492    7.0757   -0.2687 C.ar    1  LIG1       -0.0429
     26 C          -9.6045    6.9279    0.0005 C.ar    1  LIG1        0.0289
     27 N         -10.1752    5.7495    0.2209 N.ar    1  LIG1       -0.2483
     28 H          -6.4108    5.9871   -0.4821 H       1  LIG1        0.0625
     29 H         -10.2648    7.7863    0.0319 H       1  LIG1        0.0830
     30 S         -10.4101    3.1981    0.5379 S.3     1  LIG1       -0.1228
     31 H          -9.5010    2.3081    0.1241 H       1  LIG1        0.1086
     32 H          -7.8236    8.0476   -0.4712 H       1  LIG1        0.0633
@<TRIPOS>BOND
     1    19    20    1
     2    19    12    1
     3    11     4    1
     4     7     3    1
     5    28    24    1
     6    12    17   ar
     7    12    13   ar
     8    17    16   ar
     9    32    25    1
    10     4     3   ar
    11     4     5   ar
    12     3     2   ar
    13    25    24   ar
    14    25    26   ar
    15    24    23   ar
    16     2     8    1
    17     2     1   ar
    18     5    13    1
    19     5     6   ar
    20    23    16    1
    21    23    22   ar
    22    26    29    1
    23    26    27   ar
    24    13    14   ar
    25    16    15   ar
    26    31    30    1
    27    22    27   ar
    28    22    30    1
    29     1     6   ar
    30     1     9    1
    31    10     9    1
    32    14    15   ar
    33    14    18    1
    34    15    21    1
