@<TRIPOS>MOLECULE
mol_data/opt/m06hf/geoms/mol2/6ga6ga6ga-6ga.out
 42 45 0 0 0
SMALL
GASTEIGER

@<TRIPOS>ATOM
      1 C          -3.8747   -2.1059   -0.3597 C.ar    1  LIG1        0.0946
      2 C          -2.5634   -1.9289    0.0902 C.ar    1  LIG1       -0.0300
      3 C          -2.2058   -0.6700    0.5493 C.ar    1  LIG1       -0.0572
      4 C          -3.1386    0.3624    0.5277 C.ar    1  LIG1       -0.0355
      5 C          -4.4136    0.0940    0.0283 C.ar    1  LIG1        0.0748
      6 N          -4.7622   -1.1226   -0.3939 N.ar    1  LIG1       -0.2406
      7 H          -1.2078   -0.4948    0.9287 H       1  LIG1        0.0619
      8 H          -1.8581   -2.7477    0.0889 H       1  LIG1        0.0644
      9 S          -4.5167   -3.6546   -0.9505 S.3     1  LIG1       -0.1234
     10 H          -3.4760   -4.4018   -0.5673 H       1  LIG1        0.1086
     11 H          -2.8969    1.3440    0.9094 H       1  LIG1        0.0639
     12 C          -6.7892    1.0521    0.2846 C.ar    1  LIG1        0.1038
     13 C          -5.4275    1.1871   -0.0578 C.ar    1  LIG1        0.0320
     14 C          -5.0120    2.4451   -0.4925 C.ar    1  LIG1       -0.0480
     15 C          -5.8926    3.5163   -0.5247 C.ar    1  LIG1       -0.0349
     16 C          -7.2012    3.2984   -0.0935 C.ar    1  LIG1        0.0748
     17 N          -7.6175    2.0907    0.2793 N.ar    1  LIG1       -0.2400
     18 H          -3.9905    2.5750   -0.8287 H       1  LIG1        0.0626
     19 S          -7.5962   -0.4324    0.8192 S.3     1  LIG1       -0.1227
     20 H          -6.6650   -1.2734    0.3540 H       1  LIG1        0.1086
     21 H          -5.5854    4.4834   -0.8961 H       1  LIG1        0.0639
     22 C          -9.5285    4.3564   -0.3984 C.ar    1  LIG1        0.1038
     23 C          -8.1696    4.4323   -0.0267 C.ar    1  LIG1        0.0320
     24 C          -7.7111    5.6672    0.4309 C.ar    1  LIG1       -0.0480
     25 C          -8.5500    6.7711    0.4660 C.ar    1  LIG1       -0.0349
     26 C          -9.8614    6.6085    0.0192 C.ar    1  LIG1        0.0748
     27 N         -10.3178    5.4253   -0.3848 N.ar    1  LIG1       -0.2400
     28 H          -6.6909    5.7524    0.7851 H       1  LIG1        0.0626
     29 S         -10.3736    2.9148   -0.9911 S.3     1  LIG1       -0.1227
     30 H          -9.5392    2.0257   -0.4377 H       1  LIG1        0.1086
     31 H          -8.2133    7.7216    0.8543 H       1  LIG1        0.0639
     32 C         -12.1275    7.7476    0.4356 C.ar    1  LIG1        0.1031
     33 C         -10.7915    7.7760   -0.0167 C.ar    1  LIG1        0.0320
     34 C         -10.3047    8.9923   -0.4940 C.ar    1  LIG1       -0.0486
     35 C         -11.1062   10.1258   -0.4819 C.ar    1  LIG1       -0.0429
     36 C         -12.3913    9.9942    0.0292 C.ar    1  LIG1        0.0289
     37 N         -12.8844    8.8405    0.4663 N.ar    1  LIG1       -0.2483
     38 H          -9.2952    9.0383   -0.8846 H       1  LIG1        0.0625
     39 H         -13.0597   10.8451    0.0843 H       1  LIG1        0.0830
     40 S         -12.9700    6.3316    1.0957 S.3     1  LIG1       -0.1228
     41 H         -12.1852    5.4081    0.5275 H       1  LIG1        0.1086
     42 H         -10.7491   11.0757   -0.8523 H       1  LIG1        0.0633
@<TRIPOS>BOND
     1    29    30    1
     2    29    22    1
     3     9    10    1
     4     9     1    1
     5    21    15    1
     6    38    34    1
     7    42    35    1
     8    18    14    1
     9    15    14   ar
    10    15    16   ar
    11    34    35   ar
    12    34    33   ar
    13    14    13   ar
    14    35    36   ar
    15    22    27   ar
    16    22    23   ar
    17     6     1   ar
    18     6     5   ar
    19    27    26   ar
    20     1     2   ar
    21    16    23    1
    22    16    17   ar
    23    13     5    1
    24    13    12   ar
    25    23    24   ar
    26    33    26    1
    27    33    32   ar
    28    26    25   ar
    29     5     4   ar
    30    36    39    1
    31    36    37   ar
    32     8     2    1
    33     2     3   ar
    34    17    12   ar
    35    12    19    1
    36    20    19    1
    37    24    25   ar
    38    24    28    1
    39    32    37   ar
    40    32    40    1
    41    25    31    1
    42    41    40    1
    43     4     3   ar
    44     4    11    1
    45     3     7    1
