@<TRIPOS>MOLECULE
mol_data/opt/m06hf/geoms/mol2/6ga6ga6ga.out
 32 34 0 0 0
SMALL
GASTEIGER

@<TRIPOS>ATOM
      1 C          -3.9999   -1.9900   -0.7027 C.ar    1  LIG1        0.0946
      2 C          -2.8607   -2.0347    0.1061 C.ar    1  LIG1       -0.0300
      3 C          -2.6052   -0.9390    0.9169 C.ar    1  LIG1       -0.0572
      4 C          -3.4624    0.1564    0.8853 C.ar    1  LIG1       -0.0355
      5 C          -4.5570    0.1177    0.0206 C.ar    1  LIG1        0.0748
      6 N          -4.8129   -0.9446   -0.7457 N.ar    1  LIG1       -0.2406
      7 H          -1.7475   -0.9411    1.5766 H       1  LIG1        0.0619
      8 H          -2.2096   -2.8973    0.1059 H       1  LIG1        0.0644
      9 S          -4.4944   -3.3172   -1.7781 S.3     1  LIG1       -0.1234
     10 H          -3.6178   -4.2100   -1.3072 H       1  LIG1        0.1086
     11 H          -3.3074    1.0080    1.5321 H       1  LIG1        0.0639
     12 C          -6.8845    1.2096   -0.0950 C.ar    1  LIG1        0.1038
     13 C          -5.4775    1.2912   -0.0657 C.ar    1  LIG1        0.0320
     14 C          -4.9228    2.5708   -0.0621 C.ar    1  LIG1       -0.0480
     15 C          -5.7298    3.6989   -0.0517 C.ar    1  LIG1       -0.0349
     16 C          -7.1121    3.5119   -0.0389 C.ar    1  LIG1        0.0748
     17 N          -7.6509    2.2951   -0.0664 N.ar    1  LIG1       -0.2400
     18 H          -3.8450    2.6769   -0.0691 H       1  LIG1        0.0626
     19 S          -7.8536   -0.2737   -0.1133 S.3     1  LIG1       -0.1227
     20 H          -6.8534   -1.1004   -0.4382 H       1  LIG1        0.1086
     21 H          -5.3065    4.6928   -0.0223 H       1  LIG1        0.0639
     22 C          -9.1525    4.8157    0.8187 C.ar    1  LIG1        0.1031
     23 C          -8.0307    4.6896   -0.0262 C.ar    1  LIG1        0.0320
     24 C          -7.7514    5.7563   -0.8792 C.ar    1  LIG1       -0.0486
     25 C          -8.5400    6.8990   -0.8589 C.ar    1  LIG1       -0.0429
     26 C          -9.5968    6.9313    0.0422 C.ar    1  LIG1        0.0289
     27 N          -9.8940    5.9180    0.8491 N.ar    1  LIG1       -0.2483
     28 H          -6.9187    5.6758   -1.5676 H       1  LIG1        0.0625
     29 H         -10.2407    7.7994    0.1162 H       1  LIG1        0.0830
     30 S          -9.6952    3.6071    2.0020 S.3     1  LIG1       -0.1228
     31 H          -9.0937    2.5597    1.4271 H       1  LIG1        0.1086
     32 H          -8.3445    7.7338   -1.5163 H       1  LIG1        0.0633
@<TRIPOS>BOND
     1     9    10    1
     2     9     1    1
     3    28    24    1
     4    32    25    1
     5    24    25   ar
     6    24    23   ar
     7    25    26   ar
     8     6     1   ar
     9     6     5   ar
    10     1     2   ar
    11    20    19    1
    12    19    12    1
    13    12    17   ar
    14    12    13   ar
    15    18    14    1
    16    17    16   ar
    17    13    14   ar
    18    13     5    1
    19    14    15   ar
    20    15    16   ar
    21    15    21    1
    22    16    23    1
    23    23    22   ar
    24     5     4   ar
    25    26    29    1
    26    26    27   ar
    27     8     2    1
    28     2     3   ar
    29    22    27   ar
    30    22    30    1
    31     4     3   ar
    32     4    11    1
    33     3     7    1
    34    31    30    1
