@<TRIPOS>MOLECULE
mol_data/opt/m06hf/geoms/mol2/6ga6ga-6ga-.out
 32 34 0 0 0
SMALL
GASTEIGER

@<TRIPOS>ATOM
      1 C          -4.1713   -2.1149    0.2756 C.ar    1  LIG1        0.0946
      2 C          -2.8108   -2.0014   -0.0246 C.ar    1  LIG1       -0.0300
      3 C          -2.3280   -0.7433   -0.3532 C.ar    1  LIG1       -0.0572
      4 C          -3.1923    0.3473   -0.3588 C.ar    1  LIG1       -0.0355
      5 C          -4.5292    0.1349   -0.0221 C.ar    1  LIG1        0.0748
      6 N          -4.9966   -1.0780    0.2791 N.ar    1  LIG1       -0.2406
      7 H          -1.2855   -0.6139   -0.6126 H       1  LIG1        0.0619
      8 H          -2.1624   -2.8659   -0.0107 H       1  LIG1        0.0644
      9 S          -4.9721   -3.6443    0.6931 S.3     1  LIG1       -0.1234
     10 H          -3.9044   -4.4274    0.5107 H       1  LIG1        0.1086
     11 H          -2.8508    1.3330   -0.6412 H       1  LIG1        0.0639
     12 C          -6.7891    1.2660   -0.4889 C.ar    1  LIG1        0.1038
     13 C          -5.4798    1.2852    0.0295 C.ar    1  LIG1        0.0320
     14 C          -5.0561    2.4767    0.6178 C.ar    1  LIG1       -0.0480
     15 C          -5.8791    3.5928    0.6419 C.ar    1  LIG1       -0.0349
     16 C          -7.1370    3.4929    0.0439 C.ar    1  LIG1        0.0748
     17 N          -7.5586    2.3482   -0.4880 N.ar    1  LIG1       -0.2400
     18 H          -4.0776    2.5161    1.0811 H       1  LIG1        0.0626
     19 S          -7.5844   -0.1126   -1.2728 S.3     1  LIG1       -0.1227
     20 H          -6.8428   -1.0572   -0.6847 H       1  LIG1        0.1086
     21 H          -5.5716    4.5041    1.1344 H       1  LIG1        0.0639
     22 C          -9.4379    4.6424    0.1902 C.ar    1  LIG1        0.1031
     23 C          -8.0416    4.6798   -0.0154 C.ar    1  LIG1        0.0320
     24 C          -7.4694    5.9278   -0.2648 C.ar    1  LIG1       -0.0486
     25 C          -8.2480    7.0763   -0.2678 C.ar    1  LIG1       -0.0429
     26 C          -9.6049    6.9276   -0.0076 C.ar    1  LIG1        0.0289
     27 N         -10.1769    5.7484    0.2056 N.ar    1  LIG1       -0.2483
     28 H          -6.4081    5.9886   -0.4729 H       1  LIG1        0.0625
     29 H         -10.2655    7.7859    0.0223 H       1  LIG1        0.0830
     30 S         -10.4135    3.1960    0.5133 S.3     1  LIG1       -0.1228
     31 H          -9.5017    2.3075    0.1023 H       1  LIG1        0.1086
     32 H          -7.8212    8.0489   -0.4645 H       1  LIG1        0.0633
@<TRIPOS>BOND
     1    19    20    1
     2    19    12    1
     3    11     4    1
     4     7     3    1
     5    12    17   ar
     6    12    13   ar
     7    17    16   ar
     8    28    24    1
     9    32    25    1
    10     4     3   ar
    11     4     5   ar
    12     3     2   ar
    13    25    24   ar
    14    25    26   ar
    15    24    23   ar
    16     2     8    1
    17     2     1   ar
    18     5    13    1
    19     5     6   ar
    20    23    16    1
    21    23    22   ar
    22    26    29    1
    23    26    27   ar
    24    13    14   ar
    25    16    15   ar
    26    31    30    1
    27    22    27   ar
    28    22    30    1
    29     1     6   ar
    30     1     9    1
    31    10     9    1
    32    14    15   ar
    33    14    18    1
    34    15    21    1
