@<TRIPOS>MOLECULE
mol_data/opt/m06hf/geoms/mol2/6ga6ga.out
 22 23 0 0 0
SMALL
GASTEIGER

@<TRIPOS>ATOM
      1 C          -4.3255   -2.0211   -0.4022 C.ar    1  LIG1        0.0946
      2 C          -2.9955   -2.0057    0.0261 C.ar    1  LIG1       -0.0300
      3 C          -2.4846   -0.8020    0.4889 C.ar    1  LIG1       -0.0572
      4 C          -3.2918    0.3311    0.4987 C.ar    1  LIG1       -0.0355
      5 C          -4.6007    0.2186    0.0276 C.ar    1  LIG1        0.0748
      6 N          -5.0956   -0.9427   -0.4048 N.ar    1  LIG1       -0.2406
      7 H          -1.4654   -0.7488    0.8491 H       1  LIG1        0.0619
      8 H          -2.3909   -2.9012    0.0050 H       1  LIG1        0.0644
      9 S          -5.1534   -3.4749   -1.0038 S.3     1  LIG1       -0.1234
     10 H          -4.1654   -4.3292   -0.7178 H       1  LIG1        0.1086
     11 H          -2.9316    1.2748    0.8831 H       1  LIG1        0.0639
     12 C          -6.8237    1.4528    0.4174 C.ar    1  LIG1        0.1031
     13 C          -5.4827    1.4240   -0.0178 C.ar    1  LIG1        0.0320
     14 C          -4.9408    2.6186   -0.4910 C.ar    1  LIG1       -0.0486
     15 C          -5.6957    3.7834   -0.4915 C.ar    1  LIG1       -0.0429
     16 C          -6.9926    3.7057    0.0010 C.ar    1  LIG1        0.0289
     17 N          -7.5374    2.5740    0.4347 N.ar    1  LIG1       -0.2483
     18 H          -3.9255    2.6222   -0.8689 H       1  LIG1        0.0625
     19 H          -7.6273    4.5824    0.0418 H       1  LIG1        0.0830
     20 S          -7.7317    0.0700    1.0642 S.3     1  LIG1       -0.1228
     21 H          -6.9657   -0.8792    0.5142 H       1  LIG1        0.1086
     22 H          -5.2958    4.7172   -0.8588 H       1  LIG1        0.0633
@<TRIPOS>BOND
     1     9    10    1
     2     9     1    1
     3    18    14    1
     4    22    15    1
     5    15    14   ar
     6    15    16   ar
     7    14    13   ar
     8     6     1   ar
     9     6     5   ar
    10     1     2   ar
    11    13     5    1
    12    13    12   ar
    13    16    19    1
    14    16    17   ar
    15     8     2    1
    16     2     3   ar
    17     5     4   ar
    18    12    17   ar
    19    12    20    1
    20     3     4   ar
    21     3     7    1
    22     4    11    1
    23    21    20    1
