@<TRIPOS>MOLECULE
mol_data/opt/m06hf/geoms/mol2/6ga6ga6ga6ga-.out
 42 45 0 0 0
SMALL
GASTEIGER

@<TRIPOS>ATOM
      1 C          -3.8789   -2.1084    0.3586 C.ar    1  LIG1        0.0946
      2 C          -2.5637   -1.9294   -0.0790 C.ar    1  LIG1       -0.0300
      3 C          -2.2020   -0.6683   -0.5286 C.ar    1  LIG1       -0.0572
      4 C          -3.1347    0.3643   -0.5098 C.ar    1  LIG1       -0.0355
      5 C          -4.4140    0.0936   -0.0228 C.ar    1  LIG1        0.0748
      6 N          -4.7664   -1.1251    0.3901 N.ar    1  LIG1       -0.2406
      7 H          -1.2007   -0.4913   -0.8984 H       1  LIG1        0.0619
      8 H          -1.8585   -2.7484   -0.0758 H       1  LIG1        0.0644
      9 S          -4.5262   -3.6599    0.9359 S.3     1  LIG1       -0.1234
     10 H          -3.4826   -4.4055    0.5575 H       1  LIG1        0.1086
     11 H          -2.8895    1.3477   -0.8843 H       1  LIG1        0.0639
     12 C          -6.7872    1.0535   -0.2946 C.ar    1  LIG1        0.1038
     13 C          -5.4284    1.1864    0.0602 C.ar    1  LIG1        0.0320
     14 C          -5.0165    2.4420    0.5049 C.ar    1  LIG1       -0.0480
     15 C          -5.8971    3.5133    0.5351 C.ar    1  LIG1       -0.0349
     16 C          -7.2021    3.2979    0.0917 C.ar    1  LIG1        0.0748
     17 N          -7.6153    2.0922   -0.2909 N.ar    1  LIG1       -0.2400
     18 H          -3.9978    2.5700    0.8505 H       1  LIG1        0.0626
     19 S          -7.5898   -0.4280   -0.8439 S.3     1  LIG1       -0.1227
     20 H          -6.6628   -1.2716   -0.3752 H       1  LIG1        0.1086
     21 H          -5.5930    4.4783    0.9142 H       1  LIG1        0.0639
     22 C          -9.5317    4.3548    0.3823 C.ar    1  LIG1        0.1038
     23 C          -8.1697    4.4324    0.0225 C.ar    1  LIG1        0.0320
     24 C          -7.7072    5.6694   -0.4247 C.ar    1  LIG1       -0.0480
     25 C          -8.5455    6.7737   -0.4612 C.ar    1  LIG1       -0.0349
     26 C          -9.8607    6.6090   -0.0264 C.ar    1  LIG1        0.0748
     27 N         -10.3206    5.4239    0.3676 N.ar    1  LIG1       -0.2400
     28 H          -6.6839    5.7563   -0.7698 H       1  LIG1        0.0626
     29 S         -10.3819    2.9102    0.9603 S.3     1  LIG1       -0.1227
     30 H          -9.5429    2.0240    0.4092 H       1  LIG1        0.1086
     31 H          -8.2054    7.7261   -0.8417 H       1  LIG1        0.0639
     32 C         -12.1230    7.7508   -0.4561 C.ar    1  LIG1        0.1031
     33 C         -10.7908    7.7765    0.0077 C.ar    1  LIG1        0.0320
     34 C         -10.3080    8.9902    0.4954 C.ar    1  LIG1       -0.0486
     35 C         -11.1091   10.1240    0.4824 C.ar    1  LIG1       -0.0429
     36 C         -12.3898    9.9953   -0.0403 C.ar    1  LIG1        0.0289
     37 N         -12.8793    8.8440   -0.4875 N.ar    1  LIG1       -0.2483
     38 H          -9.3018    9.0339    0.8949 H       1  LIG1        0.0625
     39 H         -13.0576   10.8466   -0.0966 H       1  LIG1        0.0830
     40 S         -12.9600    6.3384   -1.1309 S.3     1  LIG1       -0.1228
     41 H         -12.1802    5.4118   -0.5609 H       1  LIG1        0.1086
     42 H         -10.7550   11.0718    0.8608 H       1  LIG1        0.0633
@<TRIPOS>BOND
     1    40    41    1
     2    40    32    1
     3     7     3    1
     4    11     4    1
     5    19    20    1
     6    19    12    1
     7    31    25    1
     8    28    24    1
     9     3     4   ar
    10     3     2   ar
    11     4     5   ar
    12    37    32   ar
    13    37    36   ar
    14    25    24   ar
    15    25    26   ar
    16    32    33   ar
    17    24    23   ar
    18    12    17   ar
    19    12    13   ar
    20    17    16   ar
    21    39    36    1
    22     2     8    1
    23     2     1   ar
    24    36    35   ar
    25    26    33    1
    26    26    27   ar
    27     5    13    1
    28     5     6   ar
    29    33    34   ar
    30    23    16    1
    31    23    22   ar
    32    13    14   ar
    33    16    15   ar
    34     1     6   ar
    35     1     9    1
    36    27    22   ar
    37    22    29    1
    38    30    29    1
    39    35    34   ar
    40    35    42    1
    41    34    38    1
    42    14    15   ar
    43    14    18    1
    44    15    21    1
    45    10     9    1
