@<TRIPOS>MOLECULE
mol_data/opt/m06hf/geoms/mol2/6ga6ga-.out
 22 23 0 0 0
SMALL
GASTEIGER

@<TRIPOS>ATOM
      1 C          -4.3295   -2.0231    0.3931 C.ar    1  LIG1        0.0946
      2 C          -2.9953   -2.0056   -0.0223 C.ar    1  LIG1       -0.0300
      3 C          -2.4800   -0.7995   -0.4738 C.ar    1  LIG1       -0.0572
      4 C          -3.2870    0.3337   -0.4855 C.ar    1  LIG1       -0.0355
      5 C          -4.6004    0.2188   -0.0277 C.ar    1  LIG1        0.0748
      6 N          -5.0995   -0.9447    0.3939 N.ar    1  LIG1       -0.2406
      7 H          -1.4574   -0.7445   -0.8238 H       1  LIG1        0.0619
      8 H          -2.3911   -2.9012   -0.0002 H       1  LIG1        0.0644
      9 S          -5.1633   -3.4799    0.9787 S.3     1  LIG1       -0.1234
     10 H          -4.1719   -4.3325    0.6998 H       1  LIG1        0.1086
     11 H          -2.9231    1.2793   -0.8614 H       1  LIG1        0.0639
     12 C          -6.8195    1.4551   -0.4327 C.ar    1  LIG1        0.1031
     13 C          -5.4828    1.4239    0.0154 C.ar    1  LIG1        0.0320
     14 C          -4.9456    2.6160    0.5003 C.ar    1  LIG1       -0.0486
     15 C          -5.7006    3.7807    0.4996 C.ar    1  LIG1       -0.0429
     16 C          -6.9926    3.7056   -0.0057 C.ar    1  LIG1        0.0289
     17 N          -7.5331    2.5763   -0.4508 N.ar    1  LIG1       -0.2483
     18 H          -3.9340    2.6176    0.8880 H       1  LIG1        0.0625
     19 H          -7.6270    4.5826   -0.0480 H       1  LIG1        0.0830
     20 S          -7.7211    0.0756   -1.0954 S.3     1  LIG1       -0.1228
     21 H          -6.9602   -0.8766   -0.5435 H       1  LIG1        0.1086
     22 H          -5.3043    4.7126    0.8758 H       1  LIG1        0.0633
@<TRIPOS>BOND
     1    20    21    1
     2    20    12    1
     3    11     4    1
     4     7     3    1
     5     4     3   ar
     6     4     5   ar
     7     3     2   ar
     8    17    12   ar
     9    17    16   ar
    10    12    13   ar
    11    19    16    1
    12     5    13    1
    13     5     6   ar
    14     2     8    1
    15     2     1   ar
    16    16    15   ar
    17    13    14   ar
    18     1     6   ar
    19     1     9    1
    20    15    14   ar
    21    15    22    1
    22    14    18    1
    23    10     9    1
