@<TRIPOS>MOLECULE
mol_data/opt/m06hf/geoms/mol2/6gd.out
 13 13 0 0 0
SMALL
GASTEIGER

@<TRIPOS>ATOM
      1 C          -4.5520   -1.9893   -0.0241 C.ar    1  LIG1        0.0940
      2 C          -3.1513   -2.0052   -0.0148 C.ar    1  LIG1       -0.0288
      3 C          -2.4855   -0.7925    0.0039 C.ar    1  LIG1       -0.0404
      4 C          -3.2373    0.3838    0.0105 C.ar    1  LIG1        0.0699
      5 C          -4.6295    0.2926   -0.0039 C.ar    1  LIG1        0.0462
      6 N          -5.2676   -0.8696   -0.0206 N.ar    1  LIG1       -0.2477
      7 H          -1.4049   -0.7478    0.0116 H       1  LIG1        0.0632
      8 H          -2.6041   -2.9366   -0.0245 H       1  LIG1        0.0644
      9 H          -5.2381    1.1880   -0.0005 H       1  LIG1        0.0843
     10 S          -5.5451   -3.4557   -0.0502 S.3     1  LIG1       -0.1234
     11 H          -4.5305   -4.3217    0.0322 H       1  LIG1        0.1086
     12 N          -2.0876    2.7066    0.0477 N.1     1  LIG1       -0.1908
     13 C          -2.5966    1.6786    0.0311 C.1     1  LIG1        0.1007
@<TRIPOS>BOND
     1    10     1    1
     2    10    11    1
     3     8     2    1
     4     1     6   ar
     5     1     2   ar
     6     6     5   ar
     7     2     3   ar
     8     5     9    1
     9     5     4   ar
    10     3     4   ar
    11     3     7    1
    12     4    13    1
    13    13    12    3
