@<TRIPOS>MOLECULE
mol_data/opt/m06hf/geoms/mol2/6gd6gd-6gd-.out
 35 37 0 0 0
SMALL
GASTEIGER

@<TRIPOS>ATOM
      1 C          -4.1711   -2.1237    0.3068 C.ar    1  LIG1        0.0947
      2 C          -2.8242   -2.0365   -0.0681 C.ar    1  LIG1       -0.0288
      3 C          -2.3394   -0.7994   -0.4458 C.ar    1  LIG1       -0.0398
      4 C          -3.1930    0.3078   -0.4231 C.ar    1  LIG1        0.0778
      5 C          -4.5195    0.1308   -0.0099 C.ar    1  LIG1        0.0921
      6 N          -4.9771   -1.0693    0.3347 N.ar    1  LIG1       -0.2393
      7 H          -1.3125   -0.6752   -0.7623 H       1  LIG1        0.0632
      8 H          -2.1847   -2.9072   -0.0688 H       1  LIG1        0.0644
      9 S          -4.9605   -3.6263    0.8022 S.3     1  LIG1       -0.1234
     10 H          -3.9377   -4.4263    0.4947 H       1  LIG1        0.1086
     11 N          -2.2764    2.6095   -1.1844 N.1     1  LIG1       -0.1908
     12 C          -2.6972    1.5960   -0.8502 C.1     1  LIG1        0.1013
     13 C          -6.7565    1.2777   -0.4993 C.ar    1  LIG1        0.1039
     14 C          -5.4651    1.2834    0.0690 C.ar    1  LIG1        0.0345
     15 C          -5.0685    2.4373    0.7320 C.ar    1  LIG1       -0.0305
     16 C          -5.9081    3.5485    0.7688 C.ar    1  LIG1        0.0785
     17 C          -7.1347    3.4864    0.0927 C.ar    1  LIG1        0.0921
     18 N          -7.5232    2.3632   -0.4983 N.ar    1  LIG1       -0.2387
     19 H          -4.1092    2.4825    1.2328 H       1  LIG1        0.0638
     20 S          -7.5220   -0.0834   -1.3282 S.3     1  LIG1       -0.1227
     21 H          -6.7946   -1.0330   -0.7286 H       1  LIG1        0.1086
     22 N          -5.1737    5.6246    2.1358 N.1     1  LIG1       -0.1908
     23 C          -5.5086    4.7128    1.5252 C.1     1  LIG1        0.1013
     24 C          -9.4290    4.6156    0.2664 C.ar    1  LIG1        0.1032
     25 C          -8.0409    4.6681    0.0077 C.ar    1  LIG1        0.0345
     26 C          -7.4922    5.8999   -0.3354 C.ar    1  LIG1       -0.0311
     27 C          -8.3062    7.0274   -0.3734 C.ar    1  LIG1        0.0705
     28 C          -9.6550    6.8824   -0.0480 C.ar    1  LIG1        0.0462
     29 N         -10.1881    5.7102    0.2524 N.ar    1  LIG1       -0.2471
     30 H          -6.4397    5.9886   -0.5744 H       1  LIG1        0.0638
     31 H         -10.3160    7.7399   -0.0425 H       1  LIG1        0.0843
     32 S         -10.3600    3.1818    0.7098 S.3     1  LIG1       -0.1228
     33 H          -9.4817    2.2771    0.2636 H       1  LIG1        0.1086
     34 N          -7.3596    9.3493   -1.0271 N.1     1  LIG1       -0.1908
     35 C          -7.7756    8.3210   -0.7354 C.1     1  LIG1        0.1007
@<TRIPOS>BOND
     1    20    21    1
     2    20    13    1
     3    11    12    3
     4    34    35    3
     5    12     4    1
     6     7     3    1
     7    35    27    1
     8    30    26    1
     9    13    18   ar
    10    13    14   ar
    11    18    17   ar
    12     3     4   ar
    13     3     2   ar
    14     4     5   ar
    15    27    26   ar
    16    27    28   ar
    17    26    25   ar
    18     8     2    1
    19     2     1   ar
    20    28    31    1
    21    28    29   ar
    22     5    14    1
    23     5     6   ar
    24    25    17    1
    25    25    24   ar
    26    14    15   ar
    27    17    16   ar
    28    29    24   ar
    29    33    32    1
    30    24    32    1
    31     1     6   ar
    32     1     9    1
    33    10     9    1
    34    15    16   ar
    35    15    19    1
    36    16    23    1
    37    23    22    3
