@<TRIPOS>MOLECULE
mol_data/opt/m06hf/geoms/mol2/6gd6gd6gd6gd.out
 46 49 0 0 0
SMALL
GASTEIGER

@<TRIPOS>ATOM
      1 C          -3.9588   -2.1023   -0.6093 C.ar    1  LIG1        0.0947
      2 C          -2.6304   -2.0200   -0.1719 C.ar    1  LIG1       -0.0288
      3 C          -2.2002   -0.8201    0.3607 C.ar    1  LIG1       -0.0398
      4 C          -3.0877    0.2587    0.4279 C.ar    1  LIG1        0.0778
      5 C          -4.3908    0.0922   -0.0568 C.ar    1  LIG1        0.0921
      6 N          -4.7959   -1.0732   -0.5510 N.ar    1  LIG1       -0.2393
      7 H          -1.1909   -0.7037    0.7315 H       1  LIG1        0.0632
      8 H          -1.9648   -2.8685   -0.2396 H       1  LIG1        0.0644
      9 S          -4.6935   -3.5559   -1.2919 S.3     1  LIG1       -0.1234
     10 H          -3.6265   -4.3458   -1.1438 H       1  LIG1        0.1086
     11 N          -2.2899    2.4847    1.4897 N.1     1  LIG1       -0.1908
     12 C          -2.6546    1.5033    1.0204 C.1     1  LIG1        0.1013
     13 C          -6.6936    1.1058    0.4241 C.ar    1  LIG1        0.1039
     14 C          -5.3724    1.2178   -0.0590 C.ar    1  LIG1        0.0345
     15 C          -4.9862    2.4475   -0.5754 C.ar    1  LIG1       -0.0305
     16 C          -5.8701    3.5248   -0.5588 C.ar    1  LIG1        0.0785
     17 C          -7.1361    3.3444    0.0143 C.ar    1  LIG1        0.0921
     18 N          -7.5076    2.1553    0.4713 N.ar    1  LIG1       -0.2387
     19 H          -4.0018    2.5800   -1.0062 H       1  LIG1        0.0638
     20 S          -7.4443   -0.3559    1.0731 S.3     1  LIG1       -0.1227
     21 H          -6.6533   -1.2147    0.4200 H       1  LIG1        0.1086
     22 N          -5.1455    5.7614   -1.6496 N.1     1  LIG1       -0.1908
     23 C          -5.4754    4.7763   -1.1630 C.1     1  LIG1        0.1013
     24 C          -9.4757    4.3615   -0.2285 C.ar    1  LIG1        0.1039
     25 C          -8.1118    4.4671    0.1235 C.ar    1  LIG1        0.0345
     26 C          -7.6722    5.6979    0.5957 C.ar    1  LIG1       -0.0305
     27 C          -8.5433    6.7838    0.6467 C.ar    1  LIG1        0.0785
     28 C          -9.8544    6.6135    0.1799 C.ar    1  LIG1        0.0921
     29 N         -10.2778    5.4218   -0.2200 N.ar    1  LIG1       -0.2387
     30 H          -6.6527    5.8246    0.9381 H       1  LIG1        0.0638
     31 S         -10.3183    2.9083   -0.7703 S.3     1  LIG1       -0.1227
     32 H          -9.4294    2.0333   -0.2830 H       1  LIG1        0.1086
     33 N          -7.6987    9.0190    1.6505 N.1     1  LIG1       -0.1908
     34 C          -8.0844    8.0360    1.2020 C.1     1  LIG1        0.1013
     35 C         -12.1499    7.6897    0.5611 C.ar    1  LIG1        0.1032
     36 C         -10.8151    7.7517    0.1006 C.ar    1  LIG1        0.0345
     37 C         -10.3789    8.9468   -0.4624 C.ar    1  LIG1       -0.0311
     38 C         -11.2456   10.0334   -0.5233 C.ar    1  LIG1        0.0705
     39 C         -12.5292    9.8877    0.0027 C.ar    1  LIG1        0.0462
     40 N         -12.9570    8.7487    0.5202 N.ar    1  LIG1       -0.2471
     41 H          -9.3751    9.0374   -0.8585 H       1  LIG1        0.0638
     42 H         -13.2265   10.7163   -0.0088 H       1  LIG1        0.0843
     43 S         -12.9424    6.2970    1.3035 S.3     1  LIG1       -0.1228
     44 H         -12.0638    5.3797    0.8916 H       1  LIG1        0.1086
     45 N         -10.5249   12.2795   -1.5959 N.1     1  LIG1       -0.1908
     46 C         -10.8383   11.2850   -1.1178 C.1     1  LIG1        0.1007
@<TRIPOS>BOND
     1    22    23    3
     2    45    46    3
     3     9    10    1
     4     9     1    1
     5    23    16    1
     6    46    38    1
     7    19    15    1
     8    41    37    1
     9    31    32    1
    10    31    24    1
    11     1     6   ar
    12     1     2   ar
    13    15    16   ar
    14    15    14   ar
    15    16    17   ar
    16     6     5   ar
    17    38    37   ar
    18    38    39   ar
    19    37    36   ar
    20     8     2    1
    21    24    29   ar
    22    24    25   ar
    23    29    28   ar
    24     2     3   ar
    25    14     5    1
    26    14    13   ar
    27     5     4   ar
    28    42    39    1
    29    39    40   ar
    30    17    25    1
    31    17    18   ar
    32    36    28    1
    33    36    35   ar
    34    25    26   ar
    35    28    27   ar
    36     3     4   ar
    37     3     7    1
    38    21    20    1
    39    13    18   ar
    40    13    20    1
    41     4    12    1
    42    40    35   ar
    43    35    43    1
    44    26    27   ar
    45    26    30    1
    46    27    34    1
    47    44    43    1
    48    12    11    3
    49    34    33    3
