@<TRIPOS>MOLECULE
mol_data/opt/m06hf/geoms/mol2/6gd6gd-6gd6gd-.out
 46 49 0 0 0
SMALL
GASTEIGER

@<TRIPOS>ATOM
      1 C          -3.9613   -2.1063    0.5828 C.ar    1  LIG1        0.0947
      2 C          -2.6349   -2.0244    0.1393 C.ar    1  LIG1       -0.0288
      3 C          -2.2063   -0.8239   -0.3935 C.ar    1  LIG1       -0.0398
      4 C          -3.0933    0.2556   -0.4549 C.ar    1  LIG1        0.0778
      5 C          -4.3942    0.0893    0.0357 C.ar    1  LIG1        0.0921
      6 N          -4.7979   -1.0766    0.5300 N.ar    1  LIG1       -0.2393
      7 H          -1.1986   -0.7078   -0.7688 H       1  LIG1        0.0632
      8 H          -1.9696   -2.8735    0.2025 H       1  LIG1        0.0644
      9 S          -4.6939   -3.5605    1.2667 S.3     1  LIG1       -0.1234
     10 H          -3.6281   -4.3509    1.1125 H       1  LIG1        0.1086
     11 N          -2.2988    2.4828   -1.5167 N.1     1  LIG1       -0.1908
     12 C          -2.6620    1.5008   -1.0474 C.1     1  LIG1        0.1013
     13 C          -6.6983    1.1056   -0.4332 C.ar    1  LIG1        0.1039
     14 C          -5.3749    1.2157    0.0441 C.ar    1  LIG1        0.0345
     15 C          -4.9853    2.4442    0.5607 C.ar    1  LIG1       -0.0305
     16 C          -5.8683    3.5224    0.5497 C.ar    1  LIG1        0.0785
     17 C          -7.1369    3.3440   -0.0183 C.ar    1  LIG1        0.0921
     18 N          -7.5115    2.1560   -0.4753 N.ar    1  LIG1       -0.2387
     19 H          -3.9988    2.5752    0.9873 H       1  LIG1        0.0638
     20 S          -7.4534   -0.3545   -1.0809 S.3     1  LIG1       -0.1227
     21 H          -6.6604   -1.2150   -0.4324 H       1  LIG1        0.1086
     22 N          -5.1367    5.7564    1.6411 N.1     1  LIG1       -0.1908
     23 C          -5.4698    4.7725    1.1542 C.1     1  LIG1        0.1013
     24 C          -9.4747    4.3631    0.2349 C.ar    1  LIG1        0.1039
     25 C          -8.1119    4.4679   -0.1218 C.ar    1  LIG1        0.0345
     26 C          -7.6728    5.6991   -0.5934 C.ar    1  LIG1       -0.0305
     27 C          -8.5429    6.7859   -0.6395 C.ar    1  LIG1        0.0785
     28 C          -9.8526    6.6162   -0.1683 C.ar    1  LIG1        0.0921
     29 N         -10.2758    5.4242    0.2309 N.ar    1  LIG1       -0.2387
     30 H          -6.6545    5.8253   -0.9395 H       1  LIG1        0.0638
     31 S         -10.3173    2.9100    0.7769 S.3     1  LIG1       -0.1227
     32 H          -9.4302    2.0347    0.2871 H       1  LIG1        0.1086
     33 N          -7.6996    9.0220   -1.6423 N.1     1  LIG1       -0.1908
     34 C          -8.0847    8.0386   -1.1942 C.1     1  LIG1        0.1013
     35 C         -12.1483    7.6953   -0.5394 C.ar    1  LIG1        0.1032
     36 C         -10.8118    7.7552   -0.0835 C.ar    1  LIG1        0.0345
     37 C         -10.3725    8.9488    0.4802 C.ar    1  LIG1       -0.0311
     38 C         -11.2379   10.0360    0.5463 C.ar    1  LIG1        0.0705
     39 C         -12.5236    9.8926    0.0246 C.ar    1  LIG1        0.0462
     40 N         -12.9543    8.7550   -0.4935 N.ar    1  LIG1       -0.2471
     41 H          -9.3672    9.0377    0.8728 H       1  LIG1        0.0638
     42 H         -13.2201   10.7218    0.0403 H       1  LIG1        0.0843
     43 S         -12.9447    6.3048   -1.2817 S.3     1  LIG1       -0.1228
     44 H         -12.0656    5.3858   -0.8747 H       1  LIG1        0.1086
     45 N         -10.5114   12.2794    1.6206 N.1     1  LIG1       -0.1908
     46 C         -10.8274   11.2862    1.1418 C.1     1  LIG1        0.1007
@<TRIPOS>BOND
     1    33    34    3
     2    11    12    3
     3    43    44    1
     4    43    35    1
     5    34    27    1
     6    20    13    1
     7    20    21    1
     8    12     4    1
     9    30    26    1
    10     7     3    1
    11    27    26   ar
    12    27    28   ar
    13    26    25   ar
    14    35    40   ar
    15    35    36   ar
    16    40    39   ar
    17    18    13   ar
    18    18    17   ar
    19     4     3   ar
    20     4     5   ar
    21    13    14   ar
    22     3     2   ar
    23    28    36    1
    24    28    29   ar
    25    25    17    1
    26    25    24   ar
    27    36    37   ar
    28    17    16   ar
    29    39    42    1
    30    39    38   ar
    31     5    14    1
    32     5     6   ar
    33    14    15   ar
    34     2     8    1
    35     2     1   ar
    36    29    24   ar
    37    24    31    1
    38    32    31    1
    39    37    38   ar
    40    37    41    1
    41     6     1   ar
    42    38    46    1
    43    16    15   ar
    44    16    23    1
    45    15    19    1
    46     1     9    1
    47    10     9    1
    48    46    45    3
    49    23    22    3
