@<TRIPOS>MOLECULE
mol_data/opt/m06hf/geoms/mol2/6gd6gd-6gd.out
 35 37 0 0 0
SMALL
GASTEIGER

@<TRIPOS>ATOM
      1 C          -4.1702   -2.1235    0.3039 C.ar    1  LIG1        0.0947
      2 C          -2.8258   -2.0376   -0.0804 C.ar    1  LIG1       -0.0288
      3 C          -2.3434   -0.8014   -0.4644 C.ar    1  LIG1       -0.0398
      4 C          -3.1966    0.3060   -0.4385 C.ar    1  LIG1        0.0778
      5 C          -4.5203    0.1303   -0.0159 C.ar    1  LIG1        0.0921
      6 N          -4.9758   -1.0689    0.3347 N.ar    1  LIG1       -0.2393
      7 H          -1.3187   -0.6782   -0.7881 H       1  LIG1        0.0632
      8 H          -2.1866   -2.9084   -0.0833 H       1  LIG1        0.0644
      9 S          -4.9565   -3.6248    0.8083 S.3     1  LIG1       -0.1234
     10 H          -3.9359   -4.4257    0.4957 H       1  LIG1        0.1086
     11 N          -2.2848    2.6057   -1.2115 N.1     1  LIG1       -0.1908
     12 C          -2.7035    1.5930   -0.8720 C.1     1  LIG1        0.1013
     13 C          -6.7603    1.2767   -0.4927 C.ar    1  LIG1        0.1039
     14 C          -5.4651    1.2833    0.0668 C.ar    1  LIG1        0.0345
     15 C          -5.0636    2.4386    0.7244 C.ar    1  LIG1       -0.0305
     16 C          -5.9025    3.5502    0.7645 C.ar    1  LIG1        0.0785
     17 C          -7.1338    3.4869    0.0970 C.ar    1  LIG1        0.0921
     18 N          -7.5267    2.3625   -0.4889 N.ar    1  LIG1       -0.2387
     19 H          -4.1009    2.4847    1.2185 H       1  LIG1        0.0638
     20 S          -7.5320   -0.0859   -1.3131 S.3     1  LIG1       -0.1227
     21 H          -6.8007   -1.0345   -0.7168 H       1  LIG1        0.1086
     22 N          -5.1582    5.6292    2.1217 N.1     1  LIG1       -0.1908
     23 C          -5.4976    4.7161    1.5154 C.1     1  LIG1        0.1013
     24 C          -9.4265    4.6174    0.2836 C.ar    1  LIG1        0.1032
     25 C          -8.0402    4.6687    0.0152 C.ar    1  LIG1        0.0345
     26 C          -7.4934    5.8995   -0.3346 C.ar    1  LIG1       -0.0311
     27 C          -8.3073    7.0271   -0.3700 C.ar    1  LIG1        0.0705
     28 C          -9.6538    6.8834   -0.0350 C.ar    1  LIG1        0.0462
     29 N         -10.1853    5.7122    0.2720 N.ar    1  LIG1       -0.2471
     30 H          -6.4426    5.9872   -0.5811 H       1  LIG1        0.0638
     31 H         -10.3145    7.7411   -0.0272 H       1  LIG1        0.0843
     32 S         -10.3549    3.1849    0.7369 S.3     1  LIG1       -0.1228
     33 H          -9.4799    2.2789    0.2869 H       1  LIG1        0.1086
     34 N          -7.3644    9.3471   -1.0360 N.1     1  LIG1       -0.1908
     35 C          -7.7787    8.3196   -0.7388 C.1     1  LIG1        0.1007
@<TRIPOS>BOND
     1    20    21    1
     2    20    13    1
     3    11    12    3
     4    34    35    3
     5    12     4    1
     6     7     3    1
     7    35    27    1
     8    30    26    1
     9    13    18   ar
    10    13    14   ar
    11    18    17   ar
    12     3     4   ar
    13     3     2   ar
    14     4     5   ar
    15    27    26   ar
    16    27    28   ar
    17    26    25   ar
    18     8     2    1
    19     2     1   ar
    20    28    31    1
    21    28    29   ar
    22     5    14    1
    23     5     6   ar
    24    25    17    1
    25    25    24   ar
    26    14    15   ar
    27    17    16   ar
    28    29    24   ar
    29    24    32    1
    30    33    32    1
    31     1     6   ar
    32     1     9    1
    33    10     9    1
    34    15    16   ar
    35    15    19    1
    36    16    23    1
    37    23    22    3
