@<TRIPOS>MOLECULE
mol_data/opt/m06hf/geoms/mol2/6gd6gd-.out
 24 25 0 0 0
SMALL
GASTEIGER

@<TRIPOS>ATOM
      1 C          -4.3712   -2.0099    0.5294 C.ar    1  LIG1        0.0947
      2 C          -3.0212   -2.0449    0.1588 C.ar    1  LIG1       -0.0288
      3 C          -2.4644   -0.8854   -0.3464 C.ar    1  LIG1       -0.0398
      4 C          -3.2507    0.2656   -0.4504 C.ar    1  LIG1        0.0778
      5 C          -4.5858    0.2158   -0.0264 C.ar    1  LIG1        0.0921
      6 N          -5.1118   -0.9122    0.4417 N.ar    1  LIG1       -0.2393
      7 H          -1.4330   -0.8575   -0.6713 H       1  LIG1        0.0632
      8 H          -2.4371   -2.9488    0.2509 H       1  LIG1        0.0644
      9 S          -5.2685   -3.4008    1.1488 S.3     1  LIG1       -0.1234
     10 H          -4.2637   -4.2766    1.0638 H       1  LIG1        0.1086
     11 N          -2.1971    2.4007   -1.4755 N.1     1  LIG1       -0.1908
     12 C          -2.6796    1.4637   -1.0220 C.1     1  LIG1        0.1013
     13 C          -6.7579    1.4388   -0.6173 C.ar    1  LIG1        0.1032
     14 C          -5.4612    1.4249   -0.0596 C.ar    1  LIG1        0.0345
     15 C          -4.9792    2.6093    0.4869 C.ar    1  LIG1       -0.0311
     16 C          -5.7639    3.7569    0.4370 C.ar    1  LIG1        0.0705
     17 C          -7.0132    3.6804   -0.1791 C.ar    1  LIG1        0.0462
     18 N          -7.4856    2.5518   -0.6815 N.ar    1  LIG1       -0.2471
     19 H          -4.0027    2.6451    0.9531 H       1  LIG1        0.0638
     20 H          -7.6446    4.5568   -0.2557 H       1  LIG1        0.0843
     21 S          -7.5875    0.0649   -1.3597 S.3     1  LIG1       -0.1228
     22 H          -6.8462   -0.8887   -0.7861 H       1  LIG1        0.1086
     23 N          -4.9535    5.9880    1.4767 N.1     1  LIG1       -0.1908
     24 C          -5.3073    5.0006    1.0123 C.1     1  LIG1        0.1007
@<TRIPOS>BOND
     1    11    12    3
     2    21    22    1
     3    21    13    1
     4    12     4    1
     5    18    13   ar
     6    18    17   ar
     7     7     3    1
     8    13    14   ar
     9     4     3   ar
    10     4     5   ar
    11     3     2   ar
    12    20    17    1
    13    17    16   ar
    14    14     5    1
    15    14    15   ar
    16     5     6   ar
    17     2     8    1
    18     2     1   ar
    19    16    15   ar
    20    16    24    1
    21     6     1   ar
    22    15    19    1
    23     1     9    1
    24    24    23    3
    25    10     9    1
