@<TRIPOS>MOLECULE
mol_data/opt/m06hf/geoms/mol2/6gd6gd.out
 24 25 0 0 0
SMALL
GASTEIGER

@<TRIPOS>ATOM
      1 C          -4.3663   -2.0078   -0.5358 C.ar    1  LIG1        0.0947
      2 C          -3.0206   -2.0450   -0.1500 C.ar    1  LIG1       -0.0288
      3 C          -2.4691   -0.8879    0.3664 C.ar    1  LIG1       -0.0398
      4 C          -3.2561    0.2630    0.4663 C.ar    1  LIG1        0.0778
      5 C          -4.5864    0.2156    0.0270 C.ar    1  LIG1        0.0921
      6 N          -5.1075   -0.9102   -0.4517 N.ar    1  LIG1       -0.2393
      7 H          -1.4415   -0.8618    0.7030 H       1  LIG1        0.0632
      8 H          -2.4359   -2.9487   -0.2393 H       1  LIG1        0.0644
      9 S          -5.2571   -3.3957   -1.1711 S.3     1  LIG1       -0.1234
     10 H          -4.2537   -4.2723   -1.0785 H       1  LIG1        0.1086
     11 N          -2.2134    2.3933    1.5123 N.1     1  LIG1       -0.1908
     12 C          -2.6911    1.4585    1.0494 C.1     1  LIG1        0.1013
     13 C          -6.7645    1.4371    0.5984 C.ar    1  LIG1        0.1032
     14 C          -5.4616    1.4249    0.0554 C.ar    1  LIG1        0.0345
     15 C          -4.9729    2.6114   -0.4805 C.ar    1  LIG1       -0.0311
     16 C          -5.7577    3.7592   -0.4347 C.ar    1  LIG1        0.0705
     17 C          -7.0140    3.6806    0.1668 C.ar    1  LIG1        0.0462
     18 N          -7.4925    2.5500    0.6591 N.ar    1  LIG1       -0.2471
     19 H          -3.9913    2.6488   -0.9355 H       1  LIG1        0.0638
     20 H          -7.6459    4.5569    0.2400 H       1  LIG1        0.0843
     21 S          -7.6030    0.0604    1.3256 S.3     1  LIG1       -0.1228
     22 H          -6.8556   -0.8911    0.7564 H       1  LIG1        0.1086
     23 N          -4.9347    5.9942   -1.4557 N.1     1  LIG1       -0.1908
     24 C          -5.2942    5.0051   -0.9995 C.1     1  LIG1        0.1007
@<TRIPOS>BOND
     1    23    24    3
     2     9    10    1
     3     9     1    1
     4    24    16    1
     5    19    15    1
     6     1     6   ar
     7     1     2   ar
     8    15    16   ar
     9    15    14   ar
    10     6     5   ar
    11    16    17   ar
    12     8     2    1
    13     2     3   ar
    14     5    14    1
    15     5     4   ar
    16    14    13   ar
    17    17    20    1
    18    17    18   ar
    19     3     4   ar
    20     3     7    1
    21     4    12    1
    22    13    18   ar
    23    13    21    1
    24    22    21    1
    25    12    11    3
