@<TRIPOS>MOLECULE
mol_data/opt/m06hf/geoms/mol2/6gd6gd-6gd-6gd.out
 46 49 0 0 0
SMALL
GASTEIGER

@<TRIPOS>ATOM
      1 C          -4.0367   -2.1917   -0.0554 C.ar    1  LIG1        0.0947
      2 C          -2.6492   -2.0362   -0.1739 C.ar    1  LIG1       -0.0288
      3 C          -2.1507   -0.7524   -0.2835 C.ar    1  LIG1       -0.0398
      4 C          -3.0342    0.3313   -0.2507 C.ar    1  LIG1        0.0778
      5 C          -4.4039    0.0816   -0.1018 C.ar    1  LIG1        0.0921
      6 N          -4.8716   -1.1602   -0.0186 N.ar    1  LIG1       -0.2393
      7 H          -1.0900   -0.5732   -0.3973 H       1  LIG1        0.0632
      8 H          -1.9894   -2.8917   -0.1881 H       1  LIG1        0.0644
      9 S          -4.8533   -3.7538    0.0742 S.3     1  LIG1       -0.1234
     10 H          -3.7674   -4.5090   -0.1207 H       1  LIG1        0.1086
     11 N          -2.1001    2.7370   -0.4946 N.1     1  LIG1       -0.1908
     12 C          -2.5238    1.6756   -0.3923 C.1     1  LIG1        0.1013
     13 C          -6.5817    1.2586   -0.7665 C.ar    1  LIG1        0.1039
     14 C          -5.3926    1.1969   -0.0096 C.ar    1  LIG1        0.0345
     15 C          -5.1511    2.2371    0.8781 C.ar    1  LIG1       -0.0305
     16 C          -6.0321    3.3140    0.9571 C.ar    1  LIG1        0.0785
     17 C          -7.1391    3.3375    0.0977 C.ar    1  LIG1        0.0921
     18 N          -7.3844    2.3171   -0.7142 N.ar    1  LIG1       -0.2387
     19 H          -4.2832    2.2179    1.5258 H       1  LIG1        0.0638
     20 S          -7.1654    0.0373   -1.9006 S.3     1  LIG1       -0.1227
     21 H          -6.4536   -0.9731   -1.3912 H       1  LIG1        0.1086
     22 N          -5.5943    5.1512    2.7318 N.1     1  LIG1       -0.1908
     23 C          -5.7982    4.3459    1.9405 C.1     1  LIG1        0.1013
     24 C          -9.4880    4.3639    0.0388 C.ar    1  LIG1        0.1039
     25 C          -8.0812    4.4936    0.0573 C.ar    1  LIG1        0.0345
     26 C          -7.5613    5.7823    0.0564 C.ar    1  LIG1       -0.0305
     27 C          -8.4125    6.8849    0.0676 C.ar    1  LIG1        0.0785
     28 C          -9.7963    6.6631    0.0821 C.ar    1  LIG1        0.0921
     29 N         -10.2843    5.4294    0.0670 N.ar    1  LIG1       -0.2387
     30 H          -6.4907    5.9448    0.0526 H       1  LIG1        0.0638
     31 S         -10.4130    2.8616    0.0425 S.3     1  LIG1       -0.1227
     32 H          -9.4170    2.0669   -0.3636 H       1  LIG1        0.1086
     33 N          -7.3828    9.2629    0.1049 N.1     1  LIG1       -0.1908
     34 C          -7.8498    8.2152    0.0960 C.1     1  LIG1        0.1013
     35 C         -11.8668    7.8896    0.9627 C.ar    1  LIG1        0.1032
     36 C         -10.7710    7.7940    0.0769 C.ar    1  LIG1        0.0345
     37 C         -10.5953    8.8178   -0.8481 C.ar    1  LIG1       -0.0311
     38 C         -11.4667    9.9025   -0.8441 C.ar    1  LIG1        0.0705
     39 C         -12.4851    9.9318    0.1084 C.ar    1  LIG1        0.0462
     40 N         -12.6730    8.9492    0.9735 N.ar    1  LIG1       -0.2471
     41 H          -9.7888    8.7790   -1.5699 H       1  LIG1        0.0638
     42 H         -13.1684   10.7705    0.1598 H       1  LIG1        0.0843
     43 S         -12.3083    6.7110    2.2041 S.3     1  LIG1       -0.1228
     44 H         -11.6383    5.6838    1.6744 H       1  LIG1        0.1086
     45 N         -11.2239   11.8372   -2.5510 N.1     1  LIG1       -0.1908
     46 C         -11.3263   10.9802   -1.7954 C.1     1  LIG1        0.1007
@<TRIPOS>BOND
     1    45    46    3
     2    20    21    1
     3    20    13    1
     4    46    38    1
     5    41    37    1
     6    37    38   ar
     7    37    36   ar
     8    38    39   ar
     9    13    18   ar
    10    13    14   ar
    11    18    17   ar
    12    11    12    3
    13     7     3    1
    14    12     4    1
    15    32    31    1
    16     3     4   ar
    17     3     2   ar
    18     4     5   ar
    19     8     2    1
    20     2     1   ar
    21    10     9    1
    22     5     6   ar
    23     5    14    1
    24     1     6   ar
    25     1     9    1
    26    14    15   ar
    27    24    31    1
    28    24    25   ar
    29    24    29   ar
    30    30    26    1
    31    26    25   ar
    32    26    27   ar
    33    25    17    1
    34    29    28   ar
    35    27    28   ar
    36    27    34    1
    37    36    28    1
    38    36    35   ar
    39    34    33    3
    40    17    16   ar
    41    39    42    1
    42    39    40   ar
    43    15    16   ar
    44    15    19    1
    45    16    23    1
    46    35    40   ar
    47    35    43    1
    48    44    43    1
    49    23    22    3
