@<TRIPOS>MOLECULE
mol_data/opt/m06hf/geoms/mol2/6gd6gd6gd-6gd.out
 46 49 0 0 0
SMALL
GASTEIGER

@<TRIPOS>ATOM
      1 C          -3.9578   -2.1044   -0.5848 C.ar    1  LIG1        0.0947
      2 C          -2.6369   -2.0264   -0.1246 C.ar    1  LIG1       -0.0288
      3 C          -2.2142   -0.8298    0.4215 C.ar    1  LIG1       -0.0398
      4 C          -3.1012    0.2499    0.4794 C.ar    1  LIG1        0.0778
      5 C          -4.3961    0.0878   -0.0281 C.ar    1  LIG1        0.0921
      6 N          -4.7944   -1.0745   -0.5353 N.ar    1  LIG1       -0.2393
      7 H          -1.2111   -0.7169    0.8099 H       1  LIG1        0.0632
      8 H          -1.9714   -2.8755   -0.1854 H       1  LIG1        0.0644
      9 S          -4.6829   -3.5533   -1.2876 S.3     1  LIG1       -0.1234
     10 H          -3.6196   -4.3455   -1.1259 H       1  LIG1        0.1086
     11 N          -2.3183    2.4693    1.5656 N.1     1  LIG1       -0.1908
     12 C          -2.6764    1.4908    1.0854 C.1     1  LIG1        0.1013
     13 C          -6.7052    1.1024    0.4192 C.ar    1  LIG1        0.1039
     14 C          -5.3760    1.2148   -0.0410 C.ar    1  LIG1        0.0345
     15 C          -4.9793    2.4466   -0.5445 C.ar    1  LIG1       -0.0305
     16 C          -5.8618    3.5252   -0.5372 C.ar    1  LIG1        0.0785
     17 C          -7.1374    3.3439    0.0140 C.ar    1  LIG1        0.0921
     18 N          -7.5183    2.1530    0.4584 N.ar    1  LIG1       -0.2387
     19 H          -3.9877    2.5797   -0.9583 H       1  LIG1        0.0638
     20 S          -7.4689   -0.3616    1.0479 S.3     1  LIG1       -0.1227
     21 H          -6.6684   -1.2181    0.4033 H       1  LIG1        0.1086
     22 N          -5.1157    5.7658   -1.6050 N.1     1  LIG1       -0.1908
     23 C          -5.4553    4.7789   -1.1287 C.1     1  LIG1        0.1013
     24 C          -9.4714    4.3658   -0.2608 C.ar    1  LIG1        0.1039
     25 C          -8.1130    4.4676    0.1130 C.ar    1  LIG1        0.0345
     26 C          -7.6791    5.6954    0.5980 C.ar    1  LIG1       -0.0305
     27 C          -8.5491    6.7825    0.6405 C.ar    1  LIG1        0.0785
     28 C          -9.8531    6.6166    0.1522 C.ar    1  LIG1        0.0921
     29 N         -10.2719    5.4275   -0.2599 N.ar    1  LIG1       -0.2387
     30 H          -6.6650    5.8188    0.9572 H       1  LIG1        0.0638
     31 S         -10.3081    2.9169   -0.8226 S.3     1  LIG1       -0.1227
     32 H          -9.4271    2.0379   -0.3284 H       1  LIG1        0.1086
     33 N          -7.7171    9.0117    1.6677 N.1     1  LIG1       -0.1908
     34 C          -8.0971    8.0313    1.2088 C.1     1  LIG1        0.1013
     35 C         -12.1525    7.6948    0.5021 C.ar    1  LIG1        0.1032
     36 C         -10.8105    7.7567    0.0630 C.ar    1  LIG1        0.0345
     37 C         -10.3637    8.9536   -0.4877 C.ar    1  LIG1       -0.0311
     38 C         -11.2275   10.0418   -0.5573 C.ar    1  LIG1        0.0705
     39 C         -12.5196    9.8959   -0.0523 C.ar    1  LIG1        0.0462
     40 N         -12.9572    8.7553    0.4533 N.ar    1  LIG1       -0.2471
     41 H          -9.3536    9.0443   -0.8675 H       1  LIG1        0.0638
     42 H         -13.2153   10.7256   -0.0710 H       1  LIG1        0.0843
     43 S         -12.9586    6.3001    1.2261 S.3     1  LIG1       -0.1228
     44 H         -12.0751    5.3832    0.8238 H       1  LIG1        0.1086
     45 N         -10.4865   12.2915   -1.6083 N.1     1  LIG1       -0.1908
     46 C         -10.8090   11.2954   -1.1397 C.1     1  LIG1        0.1007
@<TRIPOS>BOND
     1    45    46    3
     2    22    23    3
     3     9    10    1
     4     9     1    1
     5    46    38    1
     6    23    16    1
     7    19    15    1
     8    41    37    1
     9    31    32    1
    10    31    24    1
    11     1     6   ar
    12     1     2   ar
    13    38    37   ar
    14    38    39   ar
    15    15    16   ar
    16    15    14   ar
    17    16    17   ar
    18     6     5   ar
    19    37    36   ar
    20    24    29   ar
    21    24    25   ar
    22    29    28   ar
    23     8     2    1
    24     2     3   ar
    25    42    39    1
    26    39    40   ar
    27    14     5    1
    28    14    13   ar
    29     5     4   ar
    30    17    25    1
    31    17    18   ar
    32    36    28    1
    33    36    35   ar
    34    25    26   ar
    35    28    27   ar
    36    21    20    1
    37    13    18   ar
    38    13    20    1
    39     3     4   ar
    40     3     7    1
    41    40    35   ar
    42     4    12    1
    43    35    43    1
    44    26    27   ar
    45    26    30    1
    46    27    34    1
    47    44    43    1
    48    12    11    3
    49    34    33    3
