@<TRIPOS>MOLECULE
mol_data/opt/m06hf/geoms/mol2/6gd6gd-6gd6gd.out
 46 49 0 0 0
SMALL
GASTEIGER

@<TRIPOS>ATOM
      1 C          -3.9463   -2.0970    0.5883 C.ar    1  LIG1        0.0947
      2 C          -2.6285   -2.0198    0.1193 C.ar    1  LIG1       -0.0288
      3 C          -2.2106   -0.8254   -0.4355 C.ar    1  LIG1       -0.0398
      4 C          -3.0993    0.2529   -0.4930 C.ar    1  LIG1        0.0778
      5 C          -4.3907    0.0919    0.0235 C.ar    1  LIG1        0.0921
      6 N          -4.7844   -1.0683    0.5390 N.ar    1  LIG1       -0.2393
      7 H          -1.2101   -0.7133   -0.8308 H       1  LIG1        0.0632
      8 H          -1.9616   -2.8678    0.1800 H       1  LIG1        0.0644
      9 S          -4.6652   -3.5433    1.3026 S.3     1  LIG1       -0.1234
     10 H          -3.6023   -4.3352    1.1372 H       1  LIG1        0.1086
     11 N          -2.3260    2.4679   -1.5954 N.1     1  LIG1       -0.1908
     12 C          -2.6799    1.4913   -1.1080 C.1     1  LIG1        0.1013
     13 C          -6.7038    1.1014   -0.4144 C.ar    1  LIG1        0.1039
     14 C          -5.3719    1.2178    0.0370 C.ar    1  LIG1        0.0345
     15 C          -4.9737    2.4525    0.5320 C.ar    1  LIG1       -0.0305
     16 C          -5.8577    3.5299    0.5250 C.ar    1  LIG1        0.0785
     17 C          -7.1366    3.3442   -0.0169 C.ar    1  LIG1        0.0921
     18 N          -7.5186    2.1507   -0.4534 N.ar    1  LIG1       -0.2387
     19 H          -3.9796    2.5890    0.9386 H       1  LIG1        0.0638
     20 S          -7.4694   -0.3664   -1.0316 S.3     1  LIG1       -0.1227
     21 H          -6.6641   -1.2190   -0.3879 H       1  LIG1        0.1086
     22 N          -5.1075    5.7771    1.5761 N.1     1  LIG1       -0.1908
     23 C          -5.4488    4.7873    1.1072 C.1     1  LIG1        0.1013
     24 C          -9.4699    4.3645    0.2692 C.ar    1  LIG1        0.1039
     25 C          -8.1144    4.4661   -0.1150 C.ar    1  LIG1        0.0345
     26 C          -7.6856    5.6920   -0.6094 C.ar    1  LIG1       -0.0305
     27 C          -8.5575    6.7776   -0.6514 C.ar    1  LIG1        0.0785
     28 C          -9.8576    6.6125   -0.1529 C.ar    1  LIG1        0.0921
     29 N         -10.2718    5.4250    0.2685 N.ar    1  LIG1       -0.2387
     30 H          -6.6743    5.8148   -0.9766 H       1  LIG1        0.0638
     31 S         -10.3002    2.9172    0.8447 S.3     1  LIG1       -0.1227
     32 H          -9.4228    2.0370    0.3461 H       1  LIG1        0.1086
     33 N          -7.7359    9.0023   -1.6967 N.1     1  LIG1       -0.1908
     34 C          -8.1113    8.0240   -1.2297 C.1     1  LIG1        0.1013
     35 C         -12.1610    7.6857   -0.4919 C.ar    1  LIG1        0.1032
     36 C         -10.8159    7.7518   -0.0629 C.ar    1  LIG1        0.0345
     37 C         -10.3668    8.9523    0.4779 C.ar    1  LIG1       -0.0311
     38 C         -11.2316   10.0398    0.5478 C.ar    1  LIG1        0.0705
     39 C         -12.5270    9.8894    0.0529 C.ar    1  LIG1        0.0462
     40 N         -12.9668    8.7454   -0.4432 N.ar    1  LIG1       -0.2471
     41 H          -9.3541    9.0465    0.8498 H       1  LIG1        0.0638
     42 H         -13.2237   10.7183    0.0720 H       1  LIG1        0.0843
     43 S         -12.9705    6.2860   -1.2021 S.3     1  LIG1       -0.1228
     44 H         -12.0830    5.3724   -0.8014 H       1  LIG1        0.1086
     45 N         -10.4860   12.2963    1.5807 N.1     1  LIG1       -0.1908
     46 C         -10.8105   11.2972    1.1201 C.1     1  LIG1        0.1007
@<TRIPOS>BOND
     1    33    34    3
     2    11    12    3
     3    34    27    1
     4    43    44    1
     5    43    35    1
     6    12     4    1
     7    20    13    1
     8    20    21    1
     9    30    26    1
    10     7     3    1
    11    27    26   ar
    12    27    28   ar
    13    26    25   ar
    14     4     3   ar
    15     4     5   ar
    16    35    40   ar
    17    35    36   ar
    18    18    13   ar
    19    18    17   ar
    20    40    39   ar
    21     3     2   ar
    22    13    14   ar
    23    28    36    1
    24    28    29   ar
    25    25    17    1
    26    25    24   ar
    27    36    37   ar
    28    17    16   ar
    29     5    14    1
    30     5     6   ar
    31    14    15   ar
    32    39    42    1
    33    39    38   ar
    34     2     8    1
    35     2     1   ar
    36    29    24   ar
    37    24    31    1
    38    32    31    1
    39    37    38   ar
    40    37    41    1
    41    16    15   ar
    42    16    23    1
    43    15    19    1
    44     6     1   ar
    45    38    46    1
    46     1     9    1
    47    23    22    3
    48    46    45    3
    49    10     9    1
