@<TRIPOS>MOLECULE
mol_data/opt/m06hf/geoms/mol2/6gd6gd6gd.out
 35 37 0 0 0
SMALL
GASTEIGER

@<TRIPOS>ATOM
      1 C          -4.0464   -1.9088   -1.0587 C.ar    1  LIG1        0.0947
      2 C          -2.8959   -2.0823   -0.2780 C.ar    1  LIG1       -0.0288
      3 C          -2.5886   -1.0996    0.6429 C.ar    1  LIG1       -0.0398
      4 C          -3.4137    0.0248    0.7481 C.ar    1  LIG1        0.0778
      5 C          -4.5276    0.1272   -0.0949 C.ar    1  LIG1        0.0921
      6 N          -4.8227   -0.8361   -0.9632 N.ar    1  LIG1       -0.2393
      7 H          -1.7252   -1.1893    1.2887 H       1  LIG1        0.0632
      8 H          -2.2746   -2.9601   -0.3822 H       1  LIG1        0.0644
      9 S          -4.6118   -3.0772   -2.2576 S.3     1  LIG1       -0.1234
     10 H          -3.6451   -3.9750   -2.0470 H       1  LIG1        0.1086
     11 N          -2.8500    1.8215    2.5291 N.1     1  LIG1       -0.1908
     12 C          -3.1139    1.0330    1.7386 C.1     1  LIG1        0.1013
     13 C          -6.8276    1.2475    0.0267 C.ar    1  LIG1        0.1039
     14 C          -5.4215    1.3230   -0.0665 C.ar    1  LIG1        0.0345
     15 C          -4.8544    2.5896   -0.1118 C.ar    1  LIG1       -0.0305
     16 C          -5.6613    3.7234   -0.0390 C.ar    1  LIG1        0.0785
     17 C          -7.0462    3.5538    0.0855 C.ar    1  LIG1        0.0921
     18 N          -7.5818    2.3393    0.1125 N.ar    1  LIG1       -0.2387
     19 H          -3.7817    2.7103   -0.1961 H       1  LIG1        0.0638
     20 S          -7.7909   -0.2294    0.1173 S.3     1  LIG1       -0.1227
     21 H          -6.8416   -1.0561   -0.3316 H       1  LIG1        0.1086
     22 N          -4.5458    6.0623   -0.0901 N.1     1  LIG1       -0.1908
     23 C          -5.0504    5.0324   -0.0592 C.1     1  LIG1        0.1013
     24 C          -8.9482    4.8717    1.1773 C.ar    1  LIG1        0.1032
     25 C          -7.9714    4.7228    0.1689 C.ar    1  LIG1        0.0345
     26 C          -7.8620    5.7313   -0.7817 C.ar    1  LIG1       -0.0311
     27 C          -8.6848    6.8503   -0.6895 C.ar    1  LIG1        0.0705
     28 C          -9.5852    6.9269    0.3727 C.ar    1  LIG1        0.0462
     29 N          -9.7088    5.9600    1.2675 N.ar    1  LIG1       -0.2471
     30 H          -7.1463    5.6547   -1.5907 H       1  LIG1        0.0638
     31 H         -10.2254    7.7923    0.4913 H       1  LIG1        0.0843
     32 S          -9.2646    3.7227    2.4851 S.3     1  LIG1       -0.1228
     33 H          -8.7151    2.6646    1.8840 H       1  LIG1        0.1086
     34 N          -8.5597    8.7566   -2.4403 N.1     1  LIG1       -0.1908
     35 C          -8.6113    7.9134   -1.6644 C.1     1  LIG1        0.1007
@<TRIPOS>BOND
     1    34    35    3
     2     9    10    1
     3     9     1    1
     4    35    27    1
     5    30    26    1
     6     1     6   ar
     7     1     2   ar
     8     6     5   ar
     9    26    27   ar
    10    26    25   ar
    11    27    28   ar
    12     8     2    1
    13    21    20    1
    14     2     3   ar
    15    19    15    1
    16    15    14   ar
    17    15    16   ar
    18     5    14    1
    19     5     4   ar
    20    22    23    3
    21    14    13   ar
    22    23    16    1
    23    16    17   ar
    24    13    18   ar
    25    13    20    1
    26    17    18   ar
    27    17    25    1
    28    25    24   ar
    29    28    31    1
    30    28    29   ar
    31     3     4   ar
    32     3     7    1
    33     4    12    1
    34    24    29   ar
    35    24    32    1
    36    12    11    3
    37    33    32    1
