@<TRIPOS>MOLECULE
mol_data/opt/m06hf/geoms/mol2/6gd6gd6gd-.out
 35 37 0 0 0
SMALL
GASTEIGER

@<TRIPOS>ATOM
      1 C          -4.1741   -2.1247   -0.3121 C.ar    1  LIG1        0.0947
      2 C          -2.8343   -2.0434    0.0887 C.ar    1  LIG1       -0.0288
      3 C          -2.3546   -0.8106    0.4865 C.ar    1  LIG1       -0.0398
      4 C          -3.2056    0.2983    0.4577 C.ar    1  LIG1        0.0778
      5 C          -4.5245    0.1275    0.0183 C.ar    1  LIG1        0.0921
      6 N          -4.9777   -1.0686   -0.3456 N.ar    1  LIG1       -0.2393
      7 H          -1.3336   -0.6912    0.8231 H       1  LIG1        0.0632
      8 H          -2.1965   -2.9153    0.0936 H       1  LIG1        0.0644
      9 S          -4.9567   -3.6214   -0.8357 S.3     1  LIG1       -0.1234
     10 H          -3.9410   -4.4259   -0.5165 H       1  LIG1        0.1086
     11 N          -2.2997    2.5916    1.2564 N.1     1  LIG1       -0.1908
     12 C          -2.7158    1.5818    0.9052 C.1     1  LIG1        0.1013
     13 C          -6.7680    1.2747    0.4763 C.ar    1  LIG1        0.1039
     14 C          -5.4664    1.2827   -0.0682 C.ar    1  LIG1        0.0345
     15 C          -5.0555    2.4414   -0.7137 C.ar    1  LIG1       -0.0305
     16 C          -5.8920    3.5547   -0.7562 C.ar    1  LIG1        0.0785
     17 C          -7.1310    3.4892   -0.1032 C.ar    1  LIG1        0.0921
     18 N          -7.5325    2.3618    0.4708 N.ar    1  LIG1       -0.2387
     19 H          -4.0870    2.4890   -1.1963 H       1  LIG1        0.0638
     20 S          -7.5510   -0.0920    1.2791 S.3     1  LIG1       -0.1227
     21 H          -6.8146   -1.0377    0.6843 H       1  LIG1        0.1086
     22 N          -5.1288    5.6412   -2.0912 N.1     1  LIG1       -0.1908
     23 C          -5.4766    4.7248   -1.4948 C.1     1  LIG1        0.1013
     24 C          -9.4194    4.6252   -0.3089 C.ar    1  LIG1        0.1032
     25 C          -8.0362    4.6721   -0.0242 C.ar    1  LIG1        0.0345
     26 C          -7.4913    5.8996    0.3397 C.ar    1  LIG1       -0.0311
     27 C          -8.3034    7.0286    0.3729 C.ar    1  LIG1        0.0705
     28 C          -9.6462    6.8896    0.0214 C.ar    1  LIG1        0.0462
     29 N         -10.1763    5.7213   -0.2992 N.ar    1  LIG1       -0.2471
     30 H          -6.4432    5.9838    0.5988 H       1  LIG1        0.0638
     31 H         -10.3052    7.7486    0.0113 H       1  LIG1        0.0843
     32 S         -10.3451    3.1975   -0.7825 S.3     1  LIG1       -0.1228
     33 H          -9.4770    2.2869   -0.3284 H       1  LIG1        0.1086
     34 N          -7.3640    9.3425    1.0644 N.1     1  LIG1       -0.1908
     35 C          -7.7768    8.3177    0.7560 C.1     1  LIG1        0.1007
@<TRIPOS>BOND
     1    22    23    3
     2    23    16    1
     3    19    15    1
     4     9    10    1
     5     9     1    1
     6    32    33    1
     7    32    24    1
     8    16    15   ar
     9    16    17   ar
    10    15    14   ar
    11     6     1   ar
    12     6     5   ar
    13     1     2   ar
    14    24    29   ar
    15    24    25   ar
    16    29    28   ar
    17    17    25    1
    18    17    18   ar
    19    14     5    1
    20    14    13   ar
    21    25    26   ar
    22    31    28    1
    23     5     4   ar
    24    28    27   ar
    25     2     8    1
    26     2     3   ar
    27    26    27   ar
    28    26    30    1
    29    27    35    1
    30     4     3   ar
    31     4    12    1
    32    18    13   ar
    33    13    20    1
    34     3     7    1
    35    21    20    1
    36    35    34    3
    37    12    11    3
