@<TRIPOS>MOLECULE
mol_data/opt/m06hf/geoms/mol2/6gd6gd6gd-6gd-.out
 46 49 0 0 0
SMALL
GASTEIGER

@<TRIPOS>ATOM
      1 C          -3.9519   -2.1010   -0.5853 C.ar    1  LIG1        0.0947
      2 C          -2.6330   -2.0234   -0.1192 C.ar    1  LIG1       -0.0288
      3 C          -2.2133   -0.8281    0.4318 C.ar    1  LIG1       -0.0398
      4 C          -3.1012    0.2510    0.4887 C.ar    1  LIG1        0.0778
      5 C          -4.3938    0.0896   -0.0249 C.ar    1  LIG1        0.0921
      6 N          -4.7892   -1.0716   -0.5367 N.ar    1  LIG1       -0.2393
      7 H          -1.2119   -0.7156    0.8248 H       1  LIG1        0.0632
      8 H          -1.9667   -2.8720   -0.1794 H       1  LIG1        0.0644
      9 S          -4.6732   -3.5485   -1.2947 S.3     1  LIG1       -0.1234
     10 H          -3.6103   -4.3407   -1.1299 H       1  LIG1        0.1086
     11 N          -2.3243    2.4678    1.5847 N.1     1  LIG1       -0.1908
     12 C          -2.6797    1.4904    1.1000 C.1     1  LIG1        0.1013
     13 C          -6.7054    1.1016    0.4155 C.ar    1  LIG1        0.1039
     14 C          -5.3743    1.2161   -0.0389 C.ar    1  LIG1        0.0345
     15 C          -4.9762    2.4494   -0.5375 C.ar    1  LIG1       -0.0305
     16 C          -5.8593    3.5274   -0.5311 C.ar    1  LIG1        0.0785
     17 C          -7.1371    3.3439    0.0141 C.ar    1  LIG1        0.0921
     18 N          -7.5192    2.1517    0.4540 N.ar    1  LIG1       -0.2387
     19 H          -3.9829    2.5842   -0.9465 H       1  LIG1        0.0638
     20 S          -7.4709   -0.3642    1.0374 S.3     1  LIG1       -0.1227
     21 H          -6.6673   -1.2188    0.3943 H       1  LIG1        0.1086
     22 N          -5.1100    5.7717   -1.5890 N.1     1  LIG1       -0.1908
     23 C          -5.4510    4.7831   -1.1171 C.1     1  LIG1        0.1013
     24 C          -9.4703    4.3655   -0.2689 C.ar    1  LIG1        0.1039
     25 C          -8.1138    4.4669    0.1118 C.ar    1  LIG1        0.0345
     26 C          -7.6828    5.6935    0.6022 C.ar    1  LIG1       -0.0305
     27 C          -8.5536    6.7800    0.6438 C.ar    1  LIG1        0.0785
     28 C          -9.8551    6.6148    0.1489 C.ar    1  LIG1        0.0921
     29 N         -10.2714    5.4267   -0.2687 N.ar    1  LIG1       -0.2387
     30 H          -6.6704    5.8164    0.9666 H       1  LIG1        0.0638
     31 S         -10.3033    2.9176   -0.8391 S.3     1  LIG1       -0.1227
     32 H          -9.4254    2.0377   -0.3409 H       1  LIG1        0.1086
     33 N          -7.7275    9.0065    1.6816 N.1     1  LIG1       -0.1908
     34 C          -8.1049    8.0274    1.2179 C.1     1  LIG1        0.1013
     35 C         -12.1569    7.6905    0.4910 C.ar    1  LIG1        0.1032
     36 C         -10.8129    7.7546    0.0586 C.ar    1  LIG1        0.0345
     37 C         -10.3642    8.9535   -0.4863 C.ar    1  LIG1       -0.0311
     38 C         -11.2284   10.0414   -0.5568 C.ar    1  LIG1        0.0705
     39 C         -12.5227    9.8931   -0.0585 C.ar    1  LIG1        0.0462
     40 N         -12.9621    8.7507    0.4415 N.ar    1  LIG1       -0.2471
     41 H          -9.3523    9.0460   -0.8610 H       1  LIG1        0.0638
     42 H         -13.2189   10.7224   -0.0780 H       1  LIG1        0.0843
     43 S         -12.9657    6.2931    1.2064 S.3     1  LIG1       -0.1228
     44 H         -12.0797    5.3780    0.8057 H       1  LIG1        0.1086
     45 N         -10.4838   12.2948   -1.5973 N.1     1  LIG1       -0.1908
     46 C         -10.8078   11.2970   -1.1333 C.1     1  LIG1        0.1007
@<TRIPOS>BOND
     1    45    46    3
     2    22    23    3
     3     9    10    1
     4     9     1    1
     5    46    38    1
     6    23    16    1
     7    19    15    1
     8    41    37    1
     9    31    32    1
    10    31    24    1
    11     1     6   ar
    12     1     2   ar
    13    38    37   ar
    14    38    39   ar
    15    15    16   ar
    16    15    14   ar
    17     6     5   ar
    18    16    17   ar
    19    37    36   ar
    20    24    29   ar
    21    24    25   ar
    22    29    28   ar
    23     8     2    1
    24     2     3   ar
    25    42    39    1
    26    39    40   ar
    27    14     5    1
    28    14    13   ar
    29     5     4   ar
    30    17    25    1
    31    17    18   ar
    32    36    28    1
    33    36    35   ar
    34    25    26   ar
    35    28    27   ar
    36    21    20    1
    37    13    18   ar
    38    13    20    1
    39     3     4   ar
    40     3     7    1
    41    40    35   ar
    42     4    12    1
    43    35    43    1
    44    26    27   ar
    45    26    30    1
    46    27    34    1
    47    44    43    1
    48    12    11    3
    49    34    33    3
