@<TRIPOS>MOLECULE
mol_data/opt/m06hf/geoms/mol2/6gd6gd-6gd-6gd-.out
 46 49 0 0 0
SMALL
GASTEIGER

@<TRIPOS>ATOM
      1 C          -4.0392   -2.1929   -0.0688 C.ar    1  LIG1        0.0947
      2 C          -2.6498   -2.0370   -0.1626 C.ar    1  LIG1       -0.0288
      3 C          -2.1490   -0.7524   -0.2495 C.ar    1  LIG1       -0.0398
      4 C          -3.0324    0.3315   -0.2191 C.ar    1  LIG1        0.0778
      5 C          -4.4045    0.0811   -0.0957 C.ar    1  LIG1        0.0921
      6 N          -4.8741   -1.1614   -0.0342 N.ar    1  LIG1       -0.2393
      7 H          -1.0864   -0.5725   -0.3438 H       1  LIG1        0.0632
      8 H          -1.9903   -2.8926   -0.1756 H       1  LIG1        0.0644
      9 S          -4.8585   -3.7558    0.0297 S.3     1  LIG1       -0.1234
     10 H          -3.7699   -4.5094   -0.1558 H       1  LIG1        0.1086
     11 N          -2.0933    2.7392   -0.4205 N.1     1  LIG1       -0.1908
     12 C          -2.5191    1.6770   -0.3371 C.1     1  LIG1        0.1013
     13 C          -6.5705    1.2668   -0.7828 C.ar    1  LIG1        0.1039
     14 C          -5.3940    1.1959   -0.0072 C.ar    1  LIG1        0.0345
     15 C          -5.1668    2.2259    0.8960 C.ar    1  LIG1       -0.0305
     16 C          -6.0484    3.3024    0.9726 C.ar    1  LIG1        0.0785
     17 C          -7.1411    3.3362    0.0954 C.ar    1  LIG1        0.0921
     18 N          -7.3734    2.3252   -0.7319 N.ar    1  LIG1       -0.2387
     19 H          -4.3096    2.1988    1.5577 H       1  LIG1        0.0638
     20 S          -7.1359    0.0587   -1.9401 S.3     1  LIG1       -0.1227
     21 H          -6.4331   -0.9578   -1.4305 H       1  LIG1        0.1086
     22 N          -5.6391    5.1192    2.7749 N.1     1  LIG1       -0.1908
     23 C          -5.8303    4.3230    1.9713 C.1     1  LIG1        0.1013
     24 C          -9.4882    4.3648    0.0094 C.ar    1  LIG1        0.1039
     25 C          -8.0818    4.4933    0.0525 C.ar    1  LIG1        0.0345
     26 C          -7.5614    5.7816    0.0746 C.ar    1  LIG1       -0.0305
     27 C          -8.4122    6.8846    0.0842 C.ar    1  LIG1        0.0785
     28 C          -9.7962    6.6635    0.0734 C.ar    1  LIG1        0.0921
     29 N         -10.2844    5.4304    0.0363 N.ar    1  LIG1       -0.2387
     30 H          -6.4909    5.9435    0.0904 H       1  LIG1        0.0638
     31 S         -10.4139    2.8631   -0.0191 S.3     1  LIG1       -0.1227
     32 H          -9.4117    2.0724   -0.4177 H       1  LIG1        0.1086
     33 N          -7.3822    9.2614    0.1653 N.1     1  LIG1       -0.1908
     34 C          -7.8495    8.2141    0.1369 C.1     1  LIG1        0.1013
     35 C         -11.8804    7.8814    0.9335 C.ar    1  LIG1        0.1032
     36 C         -10.7701    7.7951    0.0649 C.ar    1  LIG1        0.0345
     37 C         -10.5787    8.8290   -0.8456 C.ar    1  LIG1       -0.0311
     38 C         -11.4495    9.9142   -0.8436 C.ar    1  LIG1        0.0705
     39 C         -12.4835    9.9335    0.0921 C.ar    1  LIG1        0.0462
     40 N         -12.6861    8.9413    0.9429 N.ar    1  LIG1       -0.2471
     41 H          -9.7604    8.7978   -1.5543 H       1  LIG1        0.0638
     42 H         -13.1672   10.7719    0.1417 H       1  LIG1        0.0843
     43 S         -12.3428    6.6891    2.1540 S.3     1  LIG1       -0.1228
     44 H         -11.6646    5.6675    1.6240 H       1  LIG1        0.1086
     45 N         -11.1778   11.8678   -2.5244 N.1     1  LIG1       -0.1908
     46 C         -11.2930   11.0024   -1.7804 C.1     1  LIG1        0.1007
@<TRIPOS>BOND
     1    45    46    3
     2    20    21    1
     3    20    13    1
     4    46    38    1
     5    41    37    1
     6    37    38   ar
     7    37    36   ar
     8    38    39   ar
     9    13    18   ar
    10    13    14   ar
    11    18    17   ar
    12    11    12    3
    13    32    31    1
    14     7     3    1
    15    12     4    1
    16     3     4   ar
    17     3     2   ar
    18     4     5   ar
    19     8     2    1
    20     2     1   ar
    21    10     9    1
    22     5     6   ar
    23     5    14    1
    24     1     6   ar
    25     1     9    1
    26    31    24    1
    27    14    15   ar
    28    24    29   ar
    29    24    25   ar
    30    29    28   ar
    31    25    26   ar
    32    25    17    1
    33    36    28    1
    34    36    35   ar
    35    28    27   ar
    36    26    27   ar
    37    26    30    1
    38    27    34    1
    39    39    42    1
    40    39    40   ar
    41    17    16   ar
    42    34    33    3
    43    15    16   ar
    44    15    19    1
    45    35    40   ar
    46    35    43    1
    47    16    23    1
    48    44    43    1
    49    23    22    3
