@<TRIPOS>MOLECULE
mol_data/opt/m06hf/geoms/mol2/6gd6gd6gd6gd-.out
 46 49 0 0 0
SMALL
GASTEIGER

@<TRIPOS>ATOM
      1 C          -3.9724   -2.1135    0.5753 C.ar    1  LIG1        0.0947
      2 C          -2.6440   -2.0318    0.1379 C.ar    1  LIG1       -0.0288
      3 C          -2.2114   -0.8297   -0.3880 C.ar    1  LIG1       -0.0398
      4 C          -3.0964    0.2514   -0.4487 C.ar    1  LIG1        0.0778
      5 C          -4.3997    0.0851    0.0356 C.ar    1  LIG1        0.0921
      6 N          -4.8072   -1.0823    0.5233 N.ar    1  LIG1       -0.2393
      7 H          -1.2019   -0.7135   -0.7586 H       1  LIG1        0.0632
      8 H          -1.9803   -2.8821    0.2003 H       1  LIG1        0.0644
      9 S          -4.7101   -3.5694    1.2499 S.3     1  LIG1       -0.1234
     10 H          -3.6451   -4.3609    1.0967 H       1  LIG1        0.1086
     11 N          -2.2940    2.4817   -1.4980 N.1     1  LIG1       -0.1908
     12 C          -2.6607    1.4984   -1.0342 C.1     1  LIG1        0.1013
     13 C          -6.7003    1.1066   -0.4389 C.ar    1  LIG1        0.1039
     14 C          -5.3788    1.2128    0.0445 C.ar    1  LIG1        0.0345
     15 C          -4.9897    2.4387    0.5679 C.ar    1  LIG1       -0.0305
     16 C          -5.8711    3.5181    0.5578 C.ar    1  LIG1        0.0785
     17 C          -7.1376    3.3439   -0.0164 C.ar    1  LIG1        0.0921
     18 N          -7.5119    2.1583   -0.4801 N.ar    1  LIG1       -0.2387
     19 H          -4.0049    2.5664    0.9994 H       1  LIG1        0.0638
     20 S          -7.4546   -0.3496   -1.0962 S.3     1  LIG1       -0.1227
     21 H          -6.6656   -1.2140   -0.4480 H       1  LIG1        0.1086
     22 N          -5.1413    5.7465    1.6617 N.1     1  LIG1       -0.1908
     23 C          -5.4735    4.7650    1.1693 C.1     1  LIG1        0.1013
     24 C          -9.4749    4.3650    0.2315 C.ar    1  LIG1        0.1039
     25 C          -8.1106    4.4695   -0.1192 C.ar    1  LIG1        0.0345
     26 C          -7.6679    5.7021   -0.5838 C.ar    1  LIG1       -0.0305
     27 C          -8.5364    6.7903   -0.6289 C.ar    1  LIG1        0.0785
     28 C          -9.8482    6.6204   -0.1638 C.ar    1  LIG1        0.0921
     29 N         -10.2746    5.4273    0.2288 N.ar    1  LIG1       -0.2387
     30 H          -6.6480    5.8284   -0.9251 H       1  LIG1        0.0638
     31 S         -10.3216    2.9108    0.7642 S.3     1  LIG1       -0.1227
     32 H          -9.4340    2.0364    0.2735 H       1  LIG1        0.1086
     33 N          -7.6860    9.0294   -1.6188 N.1     1  LIG1       -0.1908
     34 C          -8.0742    8.0447   -1.1765 C.1     1  LIG1        0.1013
     35 C         -12.1410    7.7041   -0.5395 C.ar    1  LIG1        0.1032
     36 C         -10.8062    7.7603   -0.0781 C.ar    1  LIG1        0.0345
     37 C         -10.3676    8.9509    0.4924 C.ar    1  LIG1       -0.0311
     38 C         -11.2318   10.0391    0.5595 C.ar    1  LIG1        0.0705
     39 C         -12.5155    9.8995    0.0321 C.ar    1  LIG1        0.0462
     40 N         -12.9457    8.7646   -0.4925 N.ar    1  LIG1       -0.2471
     41 H          -9.3637    9.0368    0.8894 H       1  LIG1        0.0638
     42 H         -13.2110   10.7296    0.0483 H       1  LIG1        0.0843
     43 S         -12.9363    6.3177   -1.2907 S.3     1  LIG1       -0.1228
     44 H         -12.0599    5.3959   -0.8841 H       1  LIG1        0.1086
     45 N         -10.5065   12.2770    1.6459 N.1     1  LIG1       -0.1908
     46 C         -10.8219   11.2862    1.1617 C.1     1  LIG1        0.1007
@<TRIPOS>BOND
     1    33    34    3
     2    11    12    3
     3    43    44    1
     4    43    35    1
     5    34    27    1
     6    20    21    1
     7    20    13    1
     8    12     4    1
     9    30    26    1
    10     7     3    1
    11    27    26   ar
    12    27    28   ar
    13    26    25   ar
    14    35    40   ar
    15    35    36   ar
    16    40    39   ar
    17    18    13   ar
    18    18    17   ar
    19     4     3   ar
    20     4     5   ar
    21    13    14   ar
    22     3     2   ar
    23    28    36    1
    24    28    29   ar
    25    25    17    1
    26    25    24   ar
    27    36    37   ar
    28    17    16   ar
    29    39    42    1
    30    39    38   ar
    31     5    14    1
    32     5     6   ar
    33    14    15   ar
    34     2     8    1
    35     2     1   ar
    36    29    24   ar
    37    24    31    1
    38    32    31    1
    39    37    38   ar
    40    37    41    1
    41     6     1   ar
    42    16    15   ar
    43    16    23    1
    44    38    46    1
    45    15    19    1
    46     1     9    1
    47    10     9    1
    48    46    45    3
    49    23    22    3
