@<TRIPOS>MOLECULE
mol_data/opt/m06hf/geoms/mol2/6ge.out
 14 14 0 0 0
SMALL
GASTEIGER

@<TRIPOS>ATOM
      1 C          -4.5455   -2.0103   -0.0099 C.ar    1  LIG1        0.0940
      2 C          -3.1468   -2.0131   -0.0131 C.ar    1  LIG1       -0.0289
      3 C          -2.4928   -0.7924   -0.0080 C.ar    1  LIG1       -0.0424
      4 C          -3.2454    0.3852   -0.0022 C.ar    1  LIG1        0.0428
      5 C          -4.6382    0.2698   -0.0036 C.ar    1  LIG1        0.0442
      6 N          -5.2695   -0.8975   -0.0070 N.ar    1  LIG1       -0.2478
      7 H          -1.4124   -0.7404   -0.0101 H       1  LIG1        0.0631
      8 H          -2.5911   -2.9398   -0.0219 H       1  LIG1        0.0644
      9 H          -5.2553    1.1593   -0.0006 H       1  LIG1        0.0842
     10 S          -5.5277   -3.4900   -0.0186 S.3     1  LIG1       -0.1234
     11 H          -4.5051   -4.3467    0.0645 H       1  LIG1        0.1086
     12 C          -2.6194    1.6826    0.0042 C.1     1  LIG1       -0.0681
     13 C          -2.0991    2.7654    0.0097 C.1     1  LIG1       -0.1139
     14 H          -1.6406    3.7274    0.0145 H       1  LIG1        0.1232
@<TRIPOS>BOND
     1     8     2    1
     2    10     1    1
     3    10    11    1
     4     2     1   ar
     5     2     3   ar
     6     7     3    1
     7     1     6   ar
     8     3     4   ar
     9     6     5   ar
    10     5     4   ar
    11     5     9    1
    12     4    12    1
    13    12    13    3
    14    13    14    1
