@<TRIPOS>MOLECULE
mol_data/opt/m06hf/geoms/mol2/6ge6ge.out
 26 27 0 0 0
SMALL
GASTEIGER

@<TRIPOS>ATOM
      1 C          -4.4049   -1.9779   -0.6405 C.ar    1  LIG1        0.0947
      2 C          -3.0375   -2.0278   -0.3527 C.ar    1  LIG1       -0.0288
      3 C          -2.4479   -0.8824    0.1493 C.ar    1  LIG1       -0.0418
      4 C          -3.2104    0.2763    0.3380 C.ar    1  LIG1        0.0508
      5 C          -4.5713    0.2313   -0.0077 C.ar    1  LIG1        0.0901
      6 N          -5.1315   -0.8821   -0.4764 N.ar    1  LIG1       -0.2394
      7 H          -1.3984   -0.8686    0.4104 H       1  LIG1        0.0631
      8 H          -2.4641   -2.9308   -0.5048 H       1  LIG1        0.0644
      9 S          -5.3459   -3.3515   -1.2483 S.3     1  LIG1       -0.1234
     10 H          -4.3426   -4.2340   -1.2423 H       1  LIG1        0.1086
     11 C          -2.5926    1.4494    0.9027 C.1     1  LIG1       -0.0675
     12 C          -2.0468    2.4092    1.3766 C.1     1  LIG1       -0.1138
     13 H          -1.5784    3.2684    1.7990 H       1  LIG1        0.1232
     14 C          -6.7027    1.4319    0.7523 C.ar    1  LIG1        0.1032
     15 C          -5.4463    1.4356    0.1144 C.ar    1  LIG1        0.0343
     16 C          -5.0033    2.6371   -0.4294 C.ar    1  LIG1       -0.0331
     17 C          -5.7754    3.7895   -0.3025 C.ar    1  LIG1        0.0434
     18 C          -6.9846    3.6818    0.3893 C.ar    1  LIG1        0.0442
     19 N          -7.4277    2.5393    0.8897 N.ar    1  LIG1       -0.2471
     20 H          -4.0555    2.6813   -0.9496 H       1  LIG1        0.0638
     21 H          -7.6108    4.5539    0.5298 H       1  LIG1        0.0842
     22 S          -7.4752    0.0316    1.5177 S.3     1  LIG1       -0.1228
     23 H          -6.7859   -0.9028    0.8536 H       1  LIG1        0.1086
     24 C          -5.3518    5.0511   -0.8533 C.1     1  LIG1       -0.0681
     25 C          -5.0055    6.1073   -1.3090 C.1     1  LIG1       -0.1139
     26 H          -4.7034    7.0453   -1.7134 H       1  LIG1        0.1232
@<TRIPOS>BOND
     1    26    25    1
     2    25    24    3
     3     9    10    1
     4     9     1    1
     5    20    16    1
     6    24    17    1
     7     1     6   ar
     8     1     2   ar
     9     8     2    1
    10     6     5   ar
    11    16    17   ar
    12    16    15   ar
    13     2     3   ar
    14    17    18   ar
    15     5    15    1
    16     5     4   ar
    17    15    14   ar
    18     3     4   ar
    19     3     7    1
    20     4    11    1
    21    18    21    1
    22    18    19   ar
    23    14    19   ar
    24    14    22    1
    25    23    22    1
    26    11    12    3
    27    12    13    1
