@<TRIPOS>MOLECULE
mol_data/opt/m06hf/geoms/mol2/6ge6ge-6ge6ge-.out
 50 53 0 0 0
SMALL
GASTEIGER

@<TRIPOS>ATOM
      1 C          -4.0025   -2.0740    0.6780 C.ar    1  LIG1        0.0947
      2 C          -2.6608   -2.0191    0.2848 C.ar    1  LIG1       -0.0288
      3 C          -2.1960   -0.8291   -0.2424 C.ar    1  LIG1       -0.0418
      4 C          -3.0527    0.2735   -0.3555 C.ar    1  LIG1        0.0508
      5 C          -4.3750    0.1222    0.0884 C.ar    1  LIG1        0.0901
      6 N          -4.8167   -1.0331    0.5812 N.ar    1  LIG1       -0.2394
      7 H          -1.1724   -0.7342   -0.5789 H       1  LIG1        0.0631
      8 H          -2.0120   -2.8777    0.3826 H       1  LIG1        0.0644
      9 S          -4.7865   -3.5126    1.3521 S.3     1  LIG1       -0.1234
     10 H          -3.7317   -4.3246    1.2357 H       1  LIG1        0.1086
     11 C          -2.5636    1.4959   -0.9411 C.1     1  LIG1       -0.0675
     12 C          -2.1195    2.4973   -1.4351 C.1     1  LIG1       -0.1138
     13 H          -1.7334    3.3886   -1.8745 H       1  LIG1        0.1232
     14 C          -6.6561    1.1525   -0.4574 C.ar    1  LIG1        0.1039
     15 C          -5.3474    1.2554    0.0538 C.ar    1  LIG1        0.0344
     16 C          -4.9677    2.4846    0.5760 C.ar    1  LIG1       -0.0325
     17 C          -5.8382    3.5760    0.5536 C.ar    1  LIG1        0.0514
     18 C          -7.0999    3.3881   -0.0326 C.ar    1  LIG1        0.0902
     19 N          -7.4671    2.2023   -0.5062 N.ar    1  LIG1       -0.2387
     20 H          -3.9873    2.6063    1.0171 H       1  LIG1        0.0638
     21 S          -7.3947   -0.3027   -1.1469 S.3     1  LIG1       -0.1227
     22 H          -6.6227   -1.1722   -0.4860 H       1  LIG1        0.1086
     23 C          -5.4285    4.8210    1.1523 C.1     1  LIG1       -0.0675
     24 C          -5.0550    5.8430    1.6621 C.1     1  LIG1       -0.1138
     25 H          -4.7353    6.7528    2.1162 H       1  LIG1        0.1232
     26 C          -9.4478    4.3830    0.2127 C.ar    1  LIG1        0.1039
     27 C          -8.0874    4.5020   -0.1389 C.ar    1  LIG1        0.0344
     28 C          -7.6644    5.7382   -0.6101 C.ar    1  LIG1       -0.0325
     29 C          -8.5385    6.8247   -0.6685 C.ar    1  LIG1        0.0514
     30 C          -9.8503    6.6289   -0.2056 C.ar    1  LIG1        0.0902
     31 N         -10.2620    5.4319    0.1978 N.ar    1  LIG1       -0.2387
     32 H          -6.6435    5.8705   -0.9430 H       1  LIG1        0.0638
     33 S         -10.2592    2.9078    0.7637 S.3     1  LIG1       -0.1227
     34 H          -9.4081    2.0592    0.1723 H       1  LIG1        0.1086
     35 C          -8.0771    8.0768   -1.2127 C.1     1  LIG1       -0.0675
     36 C          -7.6626    9.1057   -1.6744 C.1     1  LIG1       -0.1138
     37 H          -7.3102   10.0233   -2.0860 H       1  LIG1        0.1232
     38 C         -12.1659    7.6608   -0.5981 C.ar    1  LIG1        0.1032
     39 C         -10.8351    7.7485   -0.1366 C.ar    1  LIG1        0.0343
     40 C         -10.4247    8.9569    0.4175 C.ar    1  LIG1       -0.0331
     41 C         -11.3003   10.0393    0.4694 C.ar    1  LIG1        0.0434
     42 C         -12.5803    9.8566   -0.0591 C.ar    1  LIG1        0.0442
     43 N         -12.9915    8.7055   -0.5658 N.ar    1  LIG1       -0.2471
     44 H          -9.4209    9.0619    0.8076 H       1  LIG1        0.0638
     45 H         -13.2919   10.6730   -0.0583 H       1  LIG1        0.0842
     46 S         -12.9286    6.2432   -1.3342 S.3     1  LIG1       -0.1228
     47 H         -12.0395    5.3465   -0.8977 H       1  LIG1        0.1086
     48 C         -10.9087   11.3045    1.0352 C.1     1  LIG1       -0.0681
     49 C         -10.5869   12.3627    1.5043 C.1     1  LIG1       -0.1139
     50 H         -10.3038   13.3010    1.9215 H       1  LIG1        0.1232
@<TRIPOS>BOND
     1    37    36    1
     2    13    12    1
     3    36    35    3
     4    12    11    3
     5    46    47    1
     6    46    38    1
     7    35    29    1
     8    21    22    1
     9    21    14    1
    10    32    28    1
    11    11     4    1
    12    29    28   ar
    13    29    30   ar
    14    28    27   ar
    15    38    43   ar
    16    38    39   ar
    17     7     3    1
    18    43    42   ar
    19    19    14   ar
    20    19    18   ar
    21    14    15   ar
    22     4     3   ar
    23     4     5   ar
    24     3     2   ar
    25    30    39    1
    26    30    31   ar
    27    27    18    1
    28    27    26   ar
    29    39    40   ar
    30    42    45    1
    31    42    41   ar
    32    18    17   ar
    33    15     5    1
    34    15    16   ar
    35     5     6   ar
    36    34    33    1
    37    31    26   ar
    38    26    33    1
    39     2     8    1
    40     2     1   ar
    41    40    41   ar
    42    40    44    1
    43    41    48    1
    44    17    16   ar
    45    17    23    1
    46    16    20    1
    47     6     1   ar
    48     1     9    1
    49    48    49    3
    50    23    24    3
    51    10     9    1
    52    49    50    1
    53    24    25    1
