@<TRIPOS>MOLECULE
mol_data/opt/m06hf/geoms/mol2/6ge6ge-6ge.out
 38 40 0 0 0
SMALL
GASTEIGER

@<TRIPOS>ATOM
      1 C          -4.1627   -2.0995    0.3219 C.ar    1  LIG1        0.0947
      2 C          -2.8183   -2.0189   -0.0559 C.ar    1  LIG1       -0.0288
      3 C          -2.3342   -0.7837   -0.4435 C.ar    1  LIG1       -0.0418
      4 C          -3.1754    0.3356   -0.4324 C.ar    1  LIG1        0.0508
      5 C          -4.5028    0.1536   -0.0135 C.ar    1  LIG1        0.0901
      6 N          -4.9638   -1.0442    0.3424 N.ar    1  LIG1       -0.2394
      7 H          -1.3074   -0.6662   -0.7624 H       1  LIG1        0.0631
      8 H          -2.1804   -2.8909   -0.0509 H       1  LIG1        0.0644
      9 S          -4.9552   -3.6013    0.8329 S.3     1  LIG1       -0.1234
     10 H          -3.9383   -4.4061    0.5172 H       1  LIG1        0.1086
     11 C          -2.6680    1.6104   -0.8718 C.1     1  LIG1       -0.0675
     12 C          -2.2141    2.6583   -1.2457 C.1     1  LIG1       -0.1138
     13 H          -1.8236    3.5920   -1.5805 H       1  LIG1        0.1232
     14 C          -6.7463    1.2940   -0.4941 C.ar    1  LIG1        0.1039
     15 C          -5.4529    1.3029    0.0633 C.ar    1  LIG1        0.0344
     16 C          -5.0580    2.4599    0.7218 C.ar    1  LIG1       -0.0325
     17 C          -5.8917    3.5778    0.7730 C.ar    1  LIG1        0.0514
     18 C          -7.1265    3.4996    0.1079 C.ar    1  LIG1        0.0902
     19 N          -7.5179    2.3745   -0.4812 N.ar    1  LIG1       -0.2387
     20 H          -4.0917    2.5033    1.2077 H       1  LIG1        0.0638
     21 S          -7.5091   -0.0721   -1.3266 S.3     1  LIG1       -0.1227
     22 H          -6.7809   -1.0193   -0.7239 H       1  LIG1        0.1086
     23 C          -5.4731    4.7393    1.5163 C.1     1  LIG1       -0.0675
     24 C          -5.0956    5.6879    2.1504 C.1     1  LIG1       -0.1138
     25 H          -4.7761    6.5339    2.7150 H       1  LIG1        0.1232
     26 C          -9.4295    4.6126    0.2951 C.ar    1  LIG1        0.1032
     27 C          -8.0459    4.6728    0.0270 C.ar    1  LIG1        0.0343
     28 C          -7.5126    5.9078   -0.3291 C.ar    1  LIG1       -0.0331
     29 C          -8.3264    7.0377   -0.3723 C.ar    1  LIG1        0.0434
     30 C          -9.6729    6.8733   -0.0388 C.ar    1  LIG1        0.0442
     31 N         -10.1984    5.6997    0.2739 N.ar    1  LIG1       -0.2471
     32 H          -6.4609    5.9959   -0.5685 H       1  LIG1        0.0638
     33 H         -10.3418    7.7248   -0.0376 H       1  LIG1        0.0842
     34 S         -10.3408    3.1683    0.7628 S.3     1  LIG1       -0.1228
     35 H          -9.4612    2.2718    0.3008 H       1  LIG1        0.1086
     36 C          -7.8065    8.3310   -0.7353 C.1     1  LIG1       -0.0681
     37 C          -7.3770    9.4116   -1.0376 C.1     1  LIG1       -0.1139
     38 H          -6.9994   10.3704   -1.3084 H       1  LIG1        0.1232
@<TRIPOS>BOND
     1    13    12    1
     2    21    22    1
     3    21    14    1
     4    38    37    1
     5    12    11    3
     6    37    36    3
     7    11     4    1
     8     7     3    1
     9    36    29    1
    10    32    28    1
    11    14    19   ar
    12    14    15   ar
    13    19    18   ar
    14     3     4   ar
    15     3     2   ar
    16     4     5   ar
    17    29    28   ar
    18    29    30   ar
    19    28    27   ar
    20     2     8    1
    21     2     1   ar
    22    30    33    1
    23    30    31   ar
    24     5    15    1
    25     5     6   ar
    26    27    18    1
    27    27    26   ar
    28    15    16   ar
    29    18    17   ar
    30    31    26   ar
    31    26    34    1
    32    35    34    1
    33     1     6   ar
    34     1     9    1
    35    10     9    1
    36    16    17   ar
    37    16    20    1
    38    17    23    1
    39    23    24    3
    40    24    25    1
