@<TRIPOS>MOLECULE
mol_data/opt/m06hf/geoms/mol2/6ge6ge6ge-.out
 38 40 0 0 0
SMALL
GASTEIGER

@<TRIPOS>ATOM
      1 C          -4.1647   -2.0998   -0.3266 C.ar    1  LIG1        0.0947
      2 C          -2.8260   -2.0236    0.0717 C.ar    1  LIG1       -0.0288
      3 C          -2.3461   -0.7919    0.4750 C.ar    1  LIG1       -0.0418
      4 C          -3.1855    0.3286    0.4592 C.ar    1  LIG1        0.0508
      5 C          -4.5068    0.1515    0.0192 C.ar    1  LIG1        0.0901
      6 N          -4.9640   -1.0431   -0.3518 N.ar    1  LIG1       -0.2394
      7 H          -1.3240   -0.6781    0.8100 H       1  LIG1        0.0631
      8 H          -2.1893   -2.8966    0.0701 H       1  LIG1        0.0644
      9 S          -4.9516   -3.5967   -0.8599 S.3     1  LIG1       -0.1234
     10 H          -3.9406   -4.4052   -0.5345 H       1  LIG1        0.1086
     11 C          -2.6831    1.5997    0.9150 C.1     1  LIG1       -0.0675
     12 C          -2.2334    2.6443    1.3029 C.1     1  LIG1       -0.1138
     13 H          -1.8466    3.5751    1.6499 H       1  LIG1        0.1232
     14 C          -6.7556    1.2919    0.4743 C.ar    1  LIG1        0.1039
     15 C          -5.4541    1.3027   -0.0637 C.ar    1  LIG1        0.0344
     16 C          -5.0478    2.4637   -0.7082 C.ar    1  LIG1       -0.0325
     17 C          -5.8792    3.5831   -0.7641 C.ar    1  LIG1        0.0514
     18 C          -7.1238    3.5021   -0.1180 C.ar    1  LIG1        0.0902
     19 N          -7.5255    2.3736    0.4575 N.ar    1  LIG1       -0.2387
     20 H          -4.0744    2.5090   -1.1793 H       1  LIG1        0.0638
     21 S          -7.5327   -0.0788    1.2860 S.3     1  LIG1       -0.1227
     22 H          -6.7968   -1.0229    0.6877 H       1  LIG1        0.1086
     23 C          -5.4480    4.7491   -1.4930 C.1     1  LIG1       -0.0675
     24 C          -5.0598    5.7015   -2.1147 C.1     1  LIG1       -0.1138
     25 H          -4.7307    6.5509   -2.6686 H       1  LIG1        0.1232
     26 C          -9.4223    4.6197   -0.3316 C.ar    1  LIG1        0.1032
     27 C          -8.0427    4.6761   -0.0426 C.ar    1  LIG1        0.0343
     28 C          -7.5131    5.9077    0.3300 C.ar    1  LIG1       -0.0331
     29 C          -8.3259    7.0386    0.3689 C.ar    1  LIG1        0.0434
     30 C          -9.6675    6.8785    0.0143 C.ar    1  LIG1        0.0442
     31 N         -10.1899    5.7078   -0.3143 N.ar    1  LIG1       -0.2471
     32 H          -6.4650    5.9926    0.5855 H       1  LIG1        0.0638
     33 H         -10.3351    7.7310    0.0091 H       1  LIG1        0.0842
     34 S         -10.3285    3.1801   -0.8228 S.3     1  LIG1       -0.1228
     35 H          -9.4571    2.2791   -0.3540 H       1  LIG1        0.1086
     36 C          -7.8096    8.3285    0.7485 C.1     1  LIG1       -0.0681
     37 C          -7.3832    9.4064    1.0647 C.1     1  LIG1       -0.1139
     38 H          -7.0083   10.3627    1.3476 H       1  LIG1        0.1232
@<TRIPOS>BOND
     1    25    24    1
     2    24    23    3
     3    23    17    1
     4    20    16    1
     5     9    10    1
     6     9     1    1
     7    34    35    1
     8    34    26    1
     9    17    16   ar
    10    17    18   ar
    11    16    15   ar
    12     6     1   ar
    13     6     5   ar
    14    26    31   ar
    15    26    27   ar
    16     1     2   ar
    17    31    30   ar
    18    18    27    1
    19    18    19   ar
    20    15     5    1
    21    15    14   ar
    22    27    28   ar
    23    33    30    1
    24    30    29   ar
    25     5     4   ar
    26     8     2    1
    27     2     3   ar
    28    28    29   ar
    29    28    32    1
    30    29    36    1
    31    19    14   ar
    32     4     3   ar
    33     4    11    1
    34    14    21    1
    35     3     7    1
    36    22    21    1
    37    36    37    3
    38    11    12    3
    39    37    38    1
    40    12    13    1
