@<TRIPOS>MOLECULE
mol_data/opt/m06hf/geoms/mol2/6ge6ge6ge6ge.out
 50 53 0 0 0
SMALL
GASTEIGER

@<TRIPOS>ATOM
      1 C          -3.7007   -1.6085   -1.7132 C.ar    1  LIG1        0.0947
      2 C          -2.7426   -2.0159   -0.7775 C.ar    1  LIG1       -0.0288
      3 C          -2.6625   -1.3088    0.4072 C.ar    1  LIG1       -0.0418
      4 C          -3.5085   -0.2152    0.6323 C.ar    1  LIG1        0.0508
      5 C          -4.4142    0.1304   -0.3832 C.ar    1  LIG1        0.0901
      6 N          -4.4975   -0.5691   -1.5137 N.ar    1  LIG1       -0.2394
      7 H          -1.9553   -1.5912    1.1754 H       1  LIG1        0.0631
      8 H          -2.0951   -2.8596   -0.9691 H       1  LIG1        0.0644
      9 S          -3.9708   -2.4159   -3.2685 S.3     1  LIG1       -0.1234
     10 H          -3.0719   -3.3858   -3.0803 H       1  LIG1        0.1086
     11 C          -3.4443    0.4883    1.8879 C.1     1  LIG1       -0.0675
     12 C          -3.3673    1.0530    2.9459 C.1     1  LIG1       -0.1138
     13 H          -3.3112    1.5593    3.8824 H       1  LIG1        0.1232
     14 C          -6.6995    1.2805   -0.5245 C.ar    1  LIG1        0.1039
     15 C          -5.3170    1.3131   -0.2564 C.ar    1  LIG1        0.0344
     16 C          -4.7833    2.5259    0.1582 C.ar    1  LIG1       -0.0325
     17 C          -5.5908    3.6536    0.3170 C.ar    1  LIG1        0.0514
     18 C          -6.9585    3.5150    0.0339 C.ar    1  LIG1        0.0902
     19 N          -7.4654    2.3547   -0.3683 N.ar    1  LIG1       -0.2387
     20 H          -3.7265    2.6039    0.3779 H       1  LIG1        0.0638
     21 S          -7.6464   -0.1313   -1.0138 S.3     1  LIG1       -0.1227
     22 H          -6.6131   -0.9015   -1.3669 H       1  LIG1        0.1086
     23 C          -5.0067    4.8799    0.7981 C.1     1  LIG1       -0.0675
     24 C          -4.4880    5.8852    1.2038 C.1     1  LIG1       -0.1138
     25 H          -4.0397    6.7831    1.5633 H       1  LIG1        0.1232
     26 C          -9.1596    4.5985    0.7807 C.ar    1  LIG1        0.1039
     27 C          -7.9044    4.6649    0.1422 C.ar    1  LIG1        0.0344
     28 C          -7.5425    5.8869   -0.4089 C.ar    1  LIG1       -0.0325
     29 C          -8.3795    6.9996   -0.3101 C.ar    1  LIG1        0.0514
     30 C          -9.6041    6.8345    0.3565 C.ar    1  LIG1        0.0902
     31 N          -9.9511    5.6612    0.8749 N.ar    1  LIG1       -0.2387
     32 H          -6.5911    5.9915   -0.9136 H       1  LIG1        0.0638
     33 S          -9.8526    3.1916    1.5992 S.3     1  LIG1       -0.1227
     34 H          -9.0258    2.2869    1.0701 H       1  LIG1        0.1086
     35 C          -7.9424    8.2617   -0.8514 C.1     1  LIG1       -0.0675
     36 C          -7.5418    9.2967   -1.3117 C.1     1  LIG1       -0.1138
     37 H          -7.1965   10.2206   -1.7152 H       1  LIG1        0.1232
     38 C         -11.2266    8.3140    1.6831 C.ar    1  LIG1        0.1032
     39 C         -10.5844    7.9547    0.4810 C.ar    1  LIG1        0.0343
     40 C         -10.8952    8.6908   -0.6583 C.ar    1  LIG1       -0.0331
     41 C         -11.7795    9.7648   -0.5800 C.ar    1  LIG1        0.0434
     42 C         -12.3190   10.0639    0.6729 C.ar    1  LIG1        0.0442
     43 N         -12.0524    9.3556    1.7586 N.ar    1  LIG1       -0.2471
     44 H         -10.4500    8.4334   -1.6104 H       1  LIG1        0.0638
     45 H         -12.9973   10.9004    0.7885 H       1  LIG1        0.0842
     46 S         -11.0192    7.5212    3.2539 S.3     1  LIG1       -0.1228
     47 H         -10.4983    6.3843    2.7811 H       1  LIG1        0.1086
     48 C         -12.1269   10.5434   -1.7410 C.1     1  LIG1       -0.0681
     49 C         -12.4177   11.1895   -2.7114 C.1     1  LIG1       -0.1139
     50 H         -12.6773   11.7589   -3.5738 H       1  LIG1        0.1232
@<TRIPOS>BOND
     1    50    49    1
     2     9    10    1
     3     9     1    1
     4    49    48    3
     5    48    41    1
     6    37    36    1
     7     1     6   ar
     8     1     2   ar
     9    44    40    1
    10     6     5   ar
    11    22    21    1
    12    36    35    3
    13    21    14    1
    14     8     2    1
    15    32    28    1
    16    35    29    1
    17     2     3   ar
    18    40    41   ar
    19    40    39   ar
    20    41    42   ar
    21    14    19   ar
    22    14    15   ar
    23    28    29   ar
    24    28    27   ar
    25     5    15    1
    26     5     4   ar
    27    19    18   ar
    28    29    30   ar
    29    15    16   ar
    30    18    27    1
    31    18    17   ar
    32    27    26   ar
    33    16    17   ar
    34    16    20    1
    35    17    23    1
    36    30    39    1
    37    30    31   ar
    38     3     4   ar
    39     3     7    1
    40    39    38   ar
    41     4    11    1
    42    42    45    1
    43    42    43   ar
    44    26    31   ar
    45    26    33    1
    46    23    24    3
    47    34    33    1
    48    24    25    1
    49    38    43   ar
    50    38    46    1
    51    11    12    3
    52    47    46    1
    53    12    13    1
