@<TRIPOS>MOLECULE
mol_data/opt/m06hf/geoms/mol2/6ge6ge-6ge-.out
 38 40 0 0 0
SMALL
GASTEIGER

@<TRIPOS>ATOM
      1 C          -4.1585   -2.0980    0.3254 C.ar    1  LIG1        0.0947
      2 C          -2.8086   -2.0128   -0.0313 C.ar    1  LIG1       -0.0288
      3 C          -2.3211   -0.7748   -0.4050 C.ar    1  LIG1       -0.0418
      4 C          -3.1645    0.3429   -0.4008 C.ar    1  LIG1        0.0508
      5 C          -4.4978    0.1563   -0.0031 C.ar    1  LIG1        0.0901
      6 N          -4.9618   -1.0442    0.3394 N.ar    1  LIG1       -0.2394
      7 H          -1.2898   -0.6537   -0.7076 H       1  LIG1        0.0631
      8 H          -2.1693   -2.8838   -0.0212 H       1  LIG1        0.0644
      9 S          -4.9559   -3.6038    0.8164 S.3     1  LIG1       -0.1234
     10 H          -3.9327   -4.4051    0.5121 H       1  LIG1        0.1086
     11 C          -2.6529    1.6210   -0.8257 C.1     1  LIG1       -0.0675
     12 C          -2.1954    2.6717   -1.1872 C.1     1  LIG1       -0.1138
     13 H          -1.8015    3.6078   -1.5110 H       1  LIG1        0.1232
     14 C          -6.7358    1.2952   -0.5118 C.ar    1  LIG1        0.1039
     15 C          -5.4511    1.3034    0.0653 C.ar    1  LIG1        0.0344
     16 C          -5.0685    2.4576    0.7358 C.ar    1  LIG1       -0.0325
     17 C          -5.9050    3.5737    0.7802 C.ar    1  LIG1        0.0514
     18 C          -7.1294    3.4968    0.0959 C.ar    1  LIG1        0.0902
     19 N          -7.5096    2.3742   -0.5051 N.ar    1  LIG1       -0.2387
     20 H          -4.1098    2.5002    1.2365 H       1  LIG1        0.0638
     21 S          -7.4833   -0.0679   -1.3631 S.3     1  LIG1       -0.1227
     22 H          -6.7625   -1.0169   -0.7544 H       1  LIG1        0.1086
     23 C          -5.5000    4.7320    1.5359 C.1     1  LIG1       -0.0675
     24 C          -5.1340    5.6779    2.1806 C.1     1  LIG1       -0.1138
     25 H          -4.8247    6.5215    2.7545 H       1  LIG1        0.1232
     26 C          -9.4371    4.6046    0.2539 C.ar    1  LIG1        0.1032
     27 C          -8.0496    4.6687    0.0073 C.ar    1  LIG1        0.0343
     28 C          -7.5134    5.9065   -0.3342 C.ar    1  LIG1       -0.0331
     29 C          -8.3286    7.0352   -0.3838 C.ar    1  LIG1        0.0434
     30 C          -9.6797    6.8666   -0.0718 C.ar    1  LIG1        0.0442
     31 N         -10.2077    5.6904    0.2267 N.ar    1  LIG1       -0.2471
     32 H          -6.4584    5.9978   -0.5571 H       1  LIG1        0.0638
     33 H         -10.3502    7.7169   -0.0762 H       1  LIG1        0.0842
     34 S         -10.3526    3.1562    0.7000 S.3     1  LIG1       -0.1228
     35 H          -9.4644    2.2637    0.2467 H       1  LIG1        0.1086
     36 C          -7.8057    8.3313   -0.7320 C.1     1  LIG1       -0.0681
     37 C          -7.3736    9.4143   -1.0221 C.1     1  LIG1       -0.1139
     38 H          -6.9938   10.3752   -1.2819 H       1  LIG1        0.1232
@<TRIPOS>BOND
     1    13    12    1
     2    21    22    1
     3    21    14    1
     4    38    37    1
     5    12    11    3
     6    37    36    3
     7    11     4    1
     8    36    29    1
     9     7     3    1
    10    32    28    1
    11    14    19   ar
    12    14    15   ar
    13    19    18   ar
    14     3     4   ar
    15     3     2   ar
    16     4     5   ar
    17    29    28   ar
    18    29    30   ar
    19    28    27   ar
    20    33    30    1
    21    30    31   ar
    22     2     8    1
    23     2     1   ar
    24     5    15    1
    25     5     6   ar
    26    27    18    1
    27    27    26   ar
    28    15    16   ar
    29    18    17   ar
    30    31    26   ar
    31    35    34    1
    32    26    34    1
    33     1     6   ar
    34     1     9    1
    35    10     9    1
    36    16    17   ar
    37    16    20    1
    38    17    23    1
    39    23    24    3
    40    24    25    1
