@<TRIPOS>MOLECULE
mol_data/opt/m06hf/geoms/mol2/6ge6ge-6ge-6ge-.out
 50 53 0 0 0
SMALL
GASTEIGER

@<TRIPOS>ATOM
      1 C          -4.0812   -2.1667   -0.1526 C.ar    1  LIG1        0.0947
      2 C          -2.6907   -2.0447   -0.2479 C.ar    1  LIG1       -0.0288
      3 C          -2.1630   -0.7704   -0.3364 C.ar    1  LIG1       -0.0418
      4 C          -3.0099    0.3450   -0.3085 C.ar    1  LIG1        0.0508
      5 C          -4.3887    0.1162   -0.1852 C.ar    1  LIG1        0.0901
      6 N          -4.8884   -1.1166   -0.1197 N.ar    1  LIG1       -0.2394
      7 H          -1.0964   -0.6174   -0.4307 H       1  LIG1        0.0631
      8 H          -2.0512   -2.9157   -0.2593 H       1  LIG1        0.0644
      9 S          -4.9397   -3.7143   -0.0443 S.3     1  LIG1       -0.1234
     10 H          -3.8720   -4.4922   -0.2513 H       1  LIG1        0.1086
     11 C          -2.4509    1.6670   -0.4337 C.1     1  LIG1       -0.0675
     12 C          -1.9500    2.7535   -0.5446 C.1     1  LIG1       -0.1138
     13 H          -1.5129    3.7202   -0.6479 H       1  LIG1        0.1232
     14 C          -6.5430    1.3314   -0.8592 C.ar    1  LIG1        0.1039
     15 C          -5.3626    1.2449   -0.0955 C.ar    1  LIG1        0.0344
     16 C          -5.1217    2.2686    0.8113 C.ar    1  LIG1       -0.0325
     17 C          -5.9900    3.3565    0.9181 C.ar    1  LIG1        0.0514
     18 C          -7.0964    3.3899    0.0536 C.ar    1  LIG1        0.0902
     19 N          -7.3428    2.3888   -0.7845 N.ar    1  LIG1       -0.2387
     20 H          -4.2533    2.2267    1.4563 H       1  LIG1        0.0638
     21 S          -7.1191    0.1392   -2.0351 S.3     1  LIG1       -0.1227
     22 H          -6.4220   -0.8882   -1.5396 H       1  LIG1        0.1086
     23 C          -5.7409    4.3649    1.9168 C.1     1  LIG1       -0.0675
     24 C          -5.5093    5.1856    2.7635 C.1     1  LIG1       -0.1138
     25 H          -5.3211    5.9169    3.5161 H       1  LIG1        0.1232
     26 C          -9.4499    4.4107    0.0285 C.ar    1  LIG1        0.1039
     27 C          -8.0455    4.5417    0.0377 C.ar    1  LIG1        0.0344
     28 C          -7.5326    5.8326    0.0547 C.ar    1  LIG1       -0.0325
     29 C          -8.3753    6.9440    0.1005 C.ar    1  LIG1        0.0514
     30 C          -9.7583    6.7074    0.1302 C.ar    1  LIG1        0.0902
     31 N         -10.2471    5.4728    0.0885 N.ar    1  LIG1       -0.2387
     32 H          -6.4622    5.9889    0.0480 H       1  LIG1        0.0638
     33 S         -10.3682    2.8990    0.0059 S.3     1  LIG1       -0.1227
     34 H          -9.3697    2.1222   -0.4305 H       1  LIG1        0.1086
     35 C          -7.8045    8.2658    0.1595 C.1     1  LIG1       -0.0675
     36 C          -7.2957    9.3532    0.2105 C.1     1  LIG1       -0.1138
     37 H          -6.8563   10.3228    0.2595 H       1  LIG1        0.1232
     38 C         -11.8061    7.9036    1.0987 C.ar    1  LIG1        0.1032
     39 C         -10.7425    7.8304    0.1765 C.ar    1  LIG1        0.0343
     40 C         -10.6090    8.8708   -0.7367 C.ar    1  LIG1       -0.0331
     41 C         -11.4851    9.9541   -0.6960 C.ar    1  LIG1        0.0434
     42 C         -12.4725    9.9473    0.2915 C.ar    1  LIG1        0.0442
     43 N         -12.6254    8.9510    1.1501 N.ar    1  LIG1       -0.2471
     44 H          -9.8219    8.8451   -1.4791 H       1  LIG1        0.0638
     45 H         -13.1646   10.7761    0.3762 H       1  LIG1        0.0842
     46 S         -12.1767    6.6974    2.3442 S.3     1  LIG1       -0.1228
     47 H         -11.5254    5.6868    1.7618 H       1  LIG1        0.1086
     48 C         -11.3789   11.0481   -1.6269 C.1     1  LIG1       -0.0681
     49 C         -11.2957   11.9613   -2.4031 C.1     1  LIG1       -0.1139
     50 H         -11.2258   12.7697   -3.0934 H       1  LIG1        0.1232
@<TRIPOS>BOND
     1    50    49    1
     2    49    48    3
     3    21    22    1
     4    21    14    1
     5    48    41    1
     6    44    40    1
     7    14    19   ar
     8    14    15   ar
     9    19    18   ar
    10    40    41   ar
    11    40    39   ar
    12    41    42   ar
    13    13    12    1
    14    12    11    3
    15    11     4    1
    16     7     3    1
    17    34    33    1
    18     3     4   ar
    19     3     2   ar
    20     4     5   ar
    21     8     2    1
    22    10     9    1
    23     2     1   ar
    24     5     6   ar
    25     5    15    1
    26     1     6   ar
    27     1     9    1
    28    15    16   ar
    29    33    26    1
    30    26    27   ar
    31    26    31   ar
    32    27    18    1
    33    27    28   ar
    34    32    28    1
    35    18    17   ar
    36    28    29   ar
    37    31    30   ar
    38    29    30   ar
    39    29    35    1
    40    30    39    1
    41    35    36    3
    42    39    38   ar
    43    36    37    1
    44    42    45    1
    45    42    43   ar
    46    16    17   ar
    47    16    20    1
    48    17    23    1
    49    38    43   ar
    50    38    46    1
    51    47    46    1
    52    23    24    3
    53    24    25    1
