@<TRIPOS>MOLECULE
mol_data/opt/m06hf/geoms/mol2/6ge6ge6ge-6ge.out
 50 53 0 0 0
SMALL
GASTEIGER

@<TRIPOS>ATOM
      1 C          -4.0000   -2.0731   -0.6745 C.ar    1  LIG1        0.0947
      2 C          -2.6626   -2.0211   -0.2665 C.ar    1  LIG1       -0.0288
      3 C          -2.2026   -0.8342    0.2718 C.ar    1  LIG1       -0.0418
      4 C          -3.0597    0.2685    0.3811 C.ar    1  LIG1        0.0508
      5 C          -4.3773    0.1205   -0.0779 C.ar    1  LIG1        0.0901
      6 N          -4.8144   -1.0320   -0.5813 N.ar    1  LIG1       -0.2394
      7 H          -1.1827   -0.7418    0.6198 H       1  LIG1        0.0631
      8 H          -2.0134   -2.8798   -0.3616 H       1  LIG1        0.0644
      9 S          -4.7777   -3.5076   -1.3643 S.3     1  LIG1       -0.1234
     10 H          -3.7248   -4.3210   -1.2405 H       1  LIG1        0.1086
     11 C          -2.5761    1.4875    0.9781 C.1     1  LIG1       -0.0675
     12 C          -2.1366    2.4860    1.4820 C.1     1  LIG1       -0.1138
     13 H          -1.7546    3.3748    1.9301 H       1  LIG1        0.1232
     14 C          -6.6633    1.1498    0.4485 C.ar    1  LIG1        0.1039
     15 C          -5.3492    1.2542   -0.0481 C.ar    1  LIG1        0.0344
     16 C          -4.9630    2.4857   -0.5600 C.ar    1  LIG1       -0.0325
     17 C          -5.8329    3.5777   -0.5416 C.ar    1  LIG1        0.0514
     18 C          -7.1010    3.3878    0.0300 C.ar    1  LIG1        0.0902
     19 N          -7.4741    2.2000    0.4938 N.ar    1  LIG1       -0.2387
     20 H          -3.9778    2.6089   -0.9899 H       1  LIG1        0.0638
     21 S          -7.4104   -0.3082    1.1228 S.3     1  LIG1       -0.1227
     22 H          -6.6319   -1.1751    0.4661 H       1  LIG1        0.1086
     23 C          -5.4158    4.8253   -1.1296 C.1     1  LIG1       -0.0675
     24 C          -5.0362    5.8495   -1.6303 C.1     1  LIG1       -0.1138
     25 H          -4.7110    6.7614   -2.0763 H       1  LIG1        0.1232
     26 C          -9.4454    4.3857   -0.2354 C.ar    1  LIG1        0.1039
     27 C          -8.0887    4.5019    0.1313 C.ar    1  LIG1        0.0344
     28 C          -7.6699    5.7355    0.6131 C.ar    1  LIG1       -0.0325
     29 C          -8.5438    6.8224    0.6675 C.ar    1  LIG1        0.0514
     30 C          -9.8507    6.6298    0.1897 C.ar    1  LIG1        0.0902
     31 N         -10.2589    5.4352   -0.2239 N.ar    1  LIG1       -0.2387
     32 H          -6.6525    5.8653    0.9576 H       1  LIG1        0.0638
     33 S         -10.2519    2.9139   -0.8022 S.3     1  LIG1       -0.1227
     34 H          -9.4079    2.0617   -0.2059 H       1  LIG1        0.1086
     35 C          -8.0873    8.0714    1.2228 C.1     1  LIG1       -0.0675
     36 C          -7.6770    9.0977    1.6940 C.1     1  LIG1       -0.1138
     37 H          -7.3283   10.0130    2.1139 H       1  LIG1        0.1232
     38 C         -12.1696    7.6617    0.5624 C.ar    1  LIG1        0.1032
     39 C         -10.8338    7.7505    0.1157 C.ar    1  LIG1        0.0343
     40 C         -10.4167    8.9614   -0.4280 C.ar    1  LIG1       -0.0331
     41 C         -11.2908   10.0447   -0.4840 C.ar    1  LIG1        0.0434
     42 C         -12.5765    9.8604    0.0297 C.ar    1  LIG1        0.0442
     43 N         -12.9940    8.7072    0.5264 N.ar    1  LIG1       -0.2471
     44 H          -9.4086    9.0674   -0.8068 H       1  LIG1        0.0638
     45 H         -13.2875   10.6774    0.0252 H       1  LIG1        0.0842
     46 S         -12.9412    6.2412    1.2835 S.3     1  LIG1       -0.1228
     47 H         -12.0482    5.3458    0.8521 H       1  LIG1        0.1086
     48 C         -10.8922   11.3123   -1.0394 C.1     1  LIG1       -0.0681
     49 C         -10.5646   12.3725   -1.4999 C.1     1  LIG1       -0.1139
     50 H         -10.2764   13.3126   -1.9095 H       1  LIG1        0.1232
@<TRIPOS>BOND
     1    25    24    1
     2    50    49    1
     3    24    23    3
     4    49    48    3
     5     9    10    1
     6     9     1    1
     7    23    17    1
     8    48    41    1
     9    20    16    1
    10    44    40    1
    11    33    26    1
    12    33    34    1
    13     1     6   ar
    14     1     2   ar
    15     6     5   ar
    16    16    17   ar
    17    16    15   ar
    18    17    18   ar
    19    41    40   ar
    20    41    42   ar
    21    40    39   ar
    22     8     2    1
    23     2     3   ar
    24    26    31   ar
    25    26    27   ar
    26    31    30   ar
    27     5    15    1
    28     5     4   ar
    29    15    14   ar
    30    45    42    1
    31    42    43   ar
    32    18    27    1
    33    18    19   ar
    34    39    30    1
    35    39    38   ar
    36    27    28   ar
    37    30    29   ar
    38     3     4   ar
    39     3     7    1
    40     4    11    1
    41    14    19   ar
    42    14    21    1
    43    22    21    1
    44    43    38   ar
    45    38    46    1
    46    28    29   ar
    47    28    32    1
    48    29    35    1
    49    47    46    1
    50    11    12    3
    51    35    36    3
    52    12    13    1
    53    36    37    1
