@<TRIPOS>MOLECULE
mol_data/opt/m06hf/geoms/mol2/6ge6ge-.out
 26 27 0 0 0
SMALL
GASTEIGER

@<TRIPOS>ATOM
      1 C          -4.4112   -1.9812    0.6300 C.ar    1  LIG1        0.0947
      2 C          -3.0411   -2.0298    0.3548 C.ar    1  LIG1       -0.0288
      3 C          -2.4468   -0.8819   -0.1357 C.ar    1  LIG1       -0.0418
      4 C          -3.2073    0.2778   -0.3256 C.ar    1  LIG1        0.0508
      5 C          -4.5715    0.2312    0.0072 C.ar    1  LIG1        0.0901
      6 N          -5.1361   -0.8845    0.4648 N.ar    1  LIG1       -0.2394
      7 H          -1.3949   -0.8669   -0.3869 H       1  LIG1        0.0631
      8 H          -2.4693   -2.9336    0.5076 H       1  LIG1        0.0644
      9 S          -5.3580   -3.3578    1.2219 S.3     1  LIG1       -0.1234
     10 H          -4.3548   -4.2404    1.2207 H       1  LIG1        0.1086
     11 C          -2.5842    1.4537   -0.8784 C.1     1  LIG1       -0.0675
     12 C          -2.0339    2.4159   -1.3422 C.1     1  LIG1       -0.1138
     13 H          -1.5616    3.2773   -1.7557 H       1  LIG1        0.1232
     14 C          -6.6955    1.4360   -0.7666 C.ar    1  LIG1        0.1032
     15 C          -5.4452    1.4363   -0.1169 C.ar    1  LIG1        0.0343
     16 C          -5.0072    2.6349    0.4372 C.ar    1  LIG1       -0.0331
     17 C          -5.7780    3.7881    0.3090 C.ar    1  LIG1        0.0434
     18 C          -6.9807    3.6840   -0.3947 C.ar    1  LIG1        0.0442
     19 N          -7.4191    2.5442   -0.9051 N.ar    1  LIG1       -0.2471
     20 H          -4.0643    2.6762    0.9664 H       1  LIG1        0.0638
     21 H          -7.6054    4.5570   -0.5366 H       1  LIG1        0.0842
     22 S          -7.4609    0.0398   -1.5465 S.3     1  LIG1       -0.1228
     23 H          -6.7781   -0.8981   -0.8807 H       1  LIG1        0.1086
     24 C          -5.3594    5.0467    0.8703 C.1     1  LIG1       -0.0681
     25 C          -5.0174    6.1005    1.3346 C.1     1  LIG1       -0.1139
     26 H          -4.7190    7.0363    1.7467 H       1  LIG1        0.1232
@<TRIPOS>BOND
     1    13    12    1
     2    22    23    1
     3    22    14    1
     4    12    11    3
     5    19    14   ar
     6    19    18   ar
     7    11     4    1
     8    14    15   ar
     9    21    18    1
    10    18    17   ar
    11     7     3    1
    12     4     3   ar
    13     4     5   ar
    14     3     2   ar
    15    15     5    1
    16    15    16   ar
    17     5     6   ar
    18    17    16   ar
    19    17    24    1
    20     2     8    1
    21     2     1   ar
    22    16    20    1
    23     6     1   ar
    24     1     9    1
    25    24    25    3
    26    10     9    1
    27    25    26    1
