@<TRIPOS>MOLECULE
mol_data/opt/m06hf/geoms/mol2/6ge6ge-6ge-6ge.out
 50 53 0 0 0
SMALL
GASTEIGER

@<TRIPOS>ATOM
      1 C          -4.0805   -2.1664   -0.1510 C.ar    1  LIG1        0.0947
      2 C          -2.6917   -2.0447   -0.2700 C.ar    1  LIG1       -0.0288
      3 C          -2.1663   -0.7710   -0.3778 C.ar    1  LIG1       -0.0418
      4 C          -3.0133    0.3443   -0.3457 C.ar    1  LIG1        0.0508
      5 C          -4.3898    0.1160   -0.1980 C.ar    1  LIG1        0.0901
      6 N          -4.8876   -1.1164   -0.1139 N.ar    1  LIG1       -0.2394
      7 H          -1.1015   -0.6183   -0.4908 H       1  LIG1        0.0631
      8 H          -2.0520   -2.9155   -0.2842 H       1  LIG1        0.0644
      9 S          -4.9362   -3.7135   -0.0156 S.3     1  LIG1       -0.1234
     10 H          -3.8716   -4.4926   -0.2332 H       1  LIG1        0.1086
     11 C          -2.4572    1.6655   -0.4912 C.1     1  LIG1       -0.0675
     12 C          -1.9587    2.7511   -0.6194 C.1     1  LIG1       -0.1138
     13 H          -1.5240    3.7171   -0.7381 H       1  LIG1        0.1232
     14 C          -6.5554    1.3244   -0.8473 C.ar    1  LIG1        0.1039
     15 C          -5.3627    1.2449   -0.1021 C.ar    1  LIG1        0.0344
     16 C          -5.1077    2.2765    0.7919 C.ar    1  LIG1       -0.0325
     17 C          -5.9747    3.3649    0.9035 C.ar    1  LIG1        0.0514
     18 C          -7.0951    3.3905    0.0568 C.ar    1  LIG1        0.0902
     19 N          -7.3544    2.3822   -0.7686 N.ar    1  LIG1       -0.2387
     20 H          -4.2290    2.2404    1.4230 H       1  LIG1        0.0638
     21 S          -7.1498    0.1220   -2.0034 S.3     1  LIG1       -0.1227
     22 H          -6.4442   -0.9008   -1.5106 H       1  LIG1        0.1086
     23 C          -5.7100    4.3819    1.8894 C.1     1  LIG1       -0.0675
     24 C          -5.4652    5.2098    2.7252 C.1     1  LIG1       -0.1138
     25 H          -5.2652    5.9475    3.4685 H       1  LIG1        0.1232
     26 C          -9.4493    4.4101    0.0611 C.ar    1  LIG1        0.1039
     27 C          -8.0449    4.5417    0.0465 C.ar    1  LIG1        0.0344
     28 C          -7.5325    5.8329    0.0442 C.ar    1  LIG1       -0.0325
     29 C          -8.3750    6.9443    0.0941 C.ar    1  LIG1        0.0514
     30 C          -9.7571    6.7074    0.1483 C.ar    1  LIG1        0.0902
     31 N         -10.2459    5.4723    0.1251 N.ar    1  LIG1       -0.2387
     32 H          -6.4624    5.9896    0.0188 H       1  LIG1        0.0638
     33 S         -10.3670    2.8978    0.0664 S.3     1  LIG1       -0.1227
     34 H          -9.3752    2.1177   -0.3795 H       1  LIG1        0.1086
     35 C          -7.8040    8.2668    0.1326 C.1     1  LIG1       -0.0675
     36 C          -7.2951    9.3548    0.1661 C.1     1  LIG1       -0.1138
     37 H          -6.8555   10.3250    0.1997 H       1  LIG1        0.1232
     38 C         -11.7897    7.9110    1.1395 C.ar    1  LIG1        0.1032
     39 C         -10.7411    7.8304    0.2009 C.ar    1  LIG1        0.0343
     40 C         -10.6229    8.8630   -0.7231 C.ar    1  LIG1       -0.0331
     41 C         -11.4988    9.9462   -0.6775 C.ar    1  LIG1        0.0434
     42 C         -12.4702    9.9475    0.3258 C.ar    1  LIG1        0.0442
     43 N         -12.6087    8.9584    1.1952 N.ar    1  LIG1       -0.2471
     44 H          -9.8479    8.8313   -1.4779 H       1  LIG1        0.0638
     45 H         -13.1613   10.7767    0.4146 H       1  LIG1        0.0842
     46 S         -12.1395    6.7153    2.4011 S.3     1  LIG1       -0.1228
     47 H         -11.4971    5.7000    1.8168 H       1  LIG1        0.1086
     48 C         -11.4083   11.0323   -1.6193 C.1     1  LIG1       -0.0681
     49 C         -11.3382   11.9389   -2.4045 C.1     1  LIG1       -0.1139
     50 H         -11.2799   12.7414   -3.1027 H       1  LIG1        0.1232
@<TRIPOS>BOND
     1    50    49    1
     2    49    48    3
     3    21    22    1
     4    21    14    1
     5    48    41    1
     6    44    40    1
     7    14    19   ar
     8    14    15   ar
     9    19    18   ar
    10    13    12    1
    11    40    41   ar
    12    40    39   ar
    13    41    42   ar
    14    12    11    3
    15    11     4    1
    16     7     3    1
    17    34    33    1
    18     3     4   ar
    19     3     2   ar
    20     4     5   ar
    21     8     2    1
    22     2     1   ar
    23    10     9    1
    24     5     6   ar
    25     5    15    1
    26     1     6   ar
    27     1     9    1
    28    15    16   ar
    29    32    28    1
    30    28    27   ar
    31    28    29   ar
    32    27    18    1
    33    27    26   ar
    34    18    17   ar
    35    26    33    1
    36    26    31   ar
    37    29    35    1
    38    29    30   ar
    39    31    30   ar
    40    35    36    3
    41    30    39    1
    42    36    37    1
    43    39    38   ar
    44    42    45    1
    45    42    43   ar
    46    16    17   ar
    47    16    20    1
    48    17    23    1
    49    38    43   ar
    50    38    46    1
    51    47    46    1
    52    23    24    3
    53    24    25    1
