@<TRIPOS>MOLECULE
mol_data/opt/m06hf/geoms/mol2/6gf.out
 13 13 0 0 0
SMALL
GASTEIGER

@<TRIPOS>ATOM
      1 C          -4.5419   -1.9961   -0.0101 C.ar    1  LIG1        0.0942
      2 C          -3.1426   -1.9781   -0.0129 C.ar    1  LIG1       -0.0266
      3 C          -2.4980   -0.7528   -0.0054 C.ar    1  LIG1       -0.0162
      4 C          -3.2647    0.4102    0.0009 C.ar    1  LIG1        0.1349
      5 C          -4.6505    0.2864   -0.0021 C.ar    1  LIG1        0.0702
      6 N          -5.2690   -0.8909   -0.0066 N.ar    1  LIG1       -0.2454
      7 H          -1.4191   -0.6740   -0.0067 H       1  LIG1        0.0655
      8 H          -2.5740   -2.8971   -0.0233 H       1  LIG1        0.0645
      9 H          -5.2845    1.1675    0.0013 H       1  LIG1        0.0867
     10 S          -5.5093   -3.4939   -0.0242 S.3     1  LIG1       -0.1234
     11 H          -4.4754   -4.3365    0.0663 H       1  LIG1        0.1086
     12 O          -2.6235    1.6079    0.0087 O.3     1  LIG1       -0.5052
     13 H          -3.2538    2.3363    0.0128 H       1  LIG1        0.2922
@<TRIPOS>BOND
     1    10     1    1
     2    10    11    1
     3     8     2    1
     4     2     1   ar
     5     2     3   ar
     6     1     6   ar
     7     7     3    1
     8     6     5   ar
     9     3     4   ar
    10     5     4   ar
    11     5     9    1
    12     4    12    1
    13    12    13    1
