@<TRIPOS>MOLECULE
mol_data/opt/m06hf/geoms/mol2/6gf6gf6gf-6gf-.out
 46 49 0 0 0
SMALL
GASTEIGER

@<TRIPOS>ATOM
      1 C          -3.9163   -2.0891   -0.5385 C.ar    1  LIG1        0.0949
      2 C          -2.6075   -1.9616   -0.0564 C.ar    1  LIG1       -0.0265
      3 C          -2.2284   -0.7511    0.4920 C.ar    1  LIG1       -0.0155
      4 C          -3.1409    0.3043    0.5246 C.ar    1  LIG1        0.1429
      5 C          -4.4122    0.0966   -0.0168 C.ar    1  LIG1        0.1161
      6 N          -4.7746   -1.0860   -0.5160 N.ar    1  LIG1       -0.2370
      7 H          -1.2405   -0.5936    0.9030 H       1  LIG1        0.0655
      8 H          -1.9134   -2.7890   -0.1028 H       1  LIG1        0.0645
      9 S          -4.5731   -3.5814   -1.2539 S.3     1  LIG1       -0.1234
     10 H          -3.5648   -4.3760   -0.8807 H       1  LIG1        0.1086
     11 O          -2.7419    1.4744    1.0786 O.3     1  LIG1       -0.5046
     12 H          -3.5001    2.0502    1.2392 H       1  LIG1        0.2922
     13 C          -6.7300    1.0937    0.4269 C.ar    1  LIG1        0.1042
     14 C          -5.4076    1.2104   -0.0536 C.ar    1  LIG1        0.0390
     15 C          -5.0266    2.4330   -0.5977 C.ar    1  LIG1       -0.0062
     16 C          -5.9137    3.5066   -0.6080 C.ar    1  LIG1        0.1435
     17 C          -7.1769    3.3185   -0.0399 C.ar    1  LIG1        0.1162
     18 N          -7.5506    2.1313    0.4330 N.ar    1  LIG1       -0.2363
     19 H          -4.0449    2.5675   -1.0372 H       1  LIG1        0.0662
     20 S          -7.4448   -0.3796    1.1159 S.3     1  LIG1       -0.1227
     21 H          -6.6576   -1.2296    0.4451 H       1  LIG1        0.1086
     22 O          -5.5020    4.6692   -1.1663 O.3     1  LIG1       -0.5046
     23 H          -6.2535    5.2589   -1.3109 H       1  LIG1        0.2922
     24 C          -9.4948    4.3589   -0.3744 C.ar    1  LIG1        0.1042
     25 C          -8.1478    4.4507    0.0381 C.ar    1  LIG1        0.0390
     26 C          -7.7127    5.6702    0.5506 C.ar    1  LIG1       -0.0062
     27 C          -8.5720    6.7641    0.5916 C.ar    1  LIG1        0.1435
     28 C          -9.8656    6.5995    0.0870 C.ar    1  LIG1        0.1162
     29 N         -10.2899    5.4175   -0.3519 N.ar    1  LIG1       -0.2363
     30 H          -6.7084    5.7871    0.9415 H       1  LIG1        0.0662
     31 S         -10.2884    2.9042   -1.0121 S.3     1  LIG1       -0.1227
     32 H          -9.4736    2.0292   -0.4110 H       1  LIG1        0.1086
     33 O          -8.1089    7.9234    1.1149 O.3     1  LIG1       -0.5046
     34 H          -8.8389    8.5369    1.2708 H       1  LIG1        0.2922
     35 C         -12.1186    7.7157    0.5639 C.ar    1  LIG1        0.1034
     36 C         -10.8094    7.7566    0.0405 C.ar    1  LIG1        0.0390
     37 C         -10.3710    8.9471   -0.5370 C.ar    1  LIG1       -0.0068
     38 C         -11.2082   10.0573   -0.5486 C.ar    1  LIG1        0.1356
     39 C         -12.4666    9.9272    0.0297 C.ar    1  LIG1        0.0702
     40 N         -12.8992    8.7880    0.5551 N.ar    1  LIG1       -0.2447
     41 H          -9.3877    9.0241   -0.9872 H       1  LIG1        0.0662
     42 H         -13.1529   10.7680    0.0613 H       1  LIG1        0.0867
     43 S         -12.8646    6.3101    1.3552 S.3     1  LIG1       -0.1228
     44 H         -12.1338    5.3836    0.7265 H       1  LIG1        0.1086
     45 O         -10.7560   11.2052   -1.1131 O.3     1  LIG1       -0.5052
     46 H         -11.4332   11.8905   -1.0923 H       1  LIG1        0.2922
@<TRIPOS>BOND
     1    23    22    1
     2     9    10    1
     3     9     1    1
     4    22    16    1
     5    45    46    1
     6    45    38    1
     7    19    15    1
     8    31    32    1
     9    31    24    1
    10    41    37    1
    11    16    15   ar
    12    16    17   ar
    13    15    14   ar
    14    38    37   ar
    15    38    39   ar
    16     1     6   ar
    17     1     2   ar
    18    37    36   ar
    19     6     5   ar
    20    24    29   ar
    21    24    25   ar
    22    29    28   ar
    23     8     2    1
    24     2     3   ar
    25    14     5    1
    26    14    13   ar
    27    17    25    1
    28    17    18   ar
    29     5     4   ar
    30    39    42    1
    31    39    40   ar
    32    25    26   ar
    33    36    28    1
    34    36    35   ar
    35    28    27   ar
    36    13    18   ar
    37    13    20    1
    38    21    20    1
    39     3     4   ar
    40     3     7    1
    41     4    11    1
    42    26    27   ar
    43    26    30    1
    44    40    35   ar
    45    35    43    1
    46    27    33    1
    47    44    43    1
    48    11    12    1
    49    33    34    1
