@<TRIPOS>MOLECULE
mol_data/opt/m06hf/geoms/mol2/6gf6gf6gf6gf.out
 46 49 0 0 0
SMALL
GASTEIGER

@<TRIPOS>ATOM
      1 C          -3.5083   -1.6459   -1.3050 C.ar    1  LIG1        0.0949
      2 C          -2.6998   -2.0295   -0.2267 C.ar    1  LIG1       -0.0265
      3 C          -2.8272   -1.3385    0.9635 C.ar    1  LIG1       -0.0155
      4 C          -3.7296   -0.2774    1.0488 C.ar    1  LIG1        0.1429
      5 C          -4.4683    0.0547   -0.0892 C.ar    1  LIG1        0.1161
      6 N          -4.3565   -0.6371   -1.2242 N.ar    1  LIG1       -0.2370
      7 H          -2.2499   -1.5982    1.8405 H       1  LIG1        0.0655
      8 H          -2.0039   -2.8518   -0.3161 H       1  LIG1        0.0645
      9 S          -3.5026   -2.4441   -2.8953 S.3     1  LIG1       -0.1234
     10 H          -2.5984   -3.3799   -2.5879 H       1  LIG1        0.1086
     11 O          -3.8397    0.3728    2.2323 O.3     1  LIG1       -0.5046
     12 H          -4.6271    0.9319    2.2423 H       1  LIG1        0.2922
     13 C          -6.7586    1.1353   -0.4635 C.ar    1  LIG1        0.1042
     14 C          -5.4054    1.2186   -0.0708 C.ar    1  LIG1        0.0390
     15 C          -4.9364    2.4501    0.3727 C.ar    1  LIG1       -0.0062
     16 C          -5.7921    3.5479    0.4351 C.ar    1  LIG1        0.1435
     17 C          -7.1157    3.3689    0.0262 C.ar    1  LIG1        0.1162
     18 N          -7.5589    2.1868   -0.3989 N.ar    1  LIG1       -0.2363
     19 H          -3.9036    2.5797    0.6751 H       1  LIG1        0.0662
     20 S          -7.5769   -0.3465   -1.0033 S.3     1  LIG1       -0.1227
     21 H          -6.4769   -0.9507   -1.4648 H       1  LIG1        0.1086
     22 O          -5.2930    4.7204    0.8903 O.3     1  LIG1       -0.5046
     23 H          -6.0062    5.3438    1.0805 H       1  LIG1        0.2922
     24 C          -9.3268    4.4815    0.6707 C.ar    1  LIG1        0.1042
     25 C          -8.0692    4.5189    0.0331 C.ar    1  LIG1        0.0390
     26 C          -7.6965    5.7023   -0.5964 C.ar    1  LIG1       -0.0062
     27 C          -8.5424    6.8085   -0.5644 C.ar    1  LIG1        0.1435
     28 C          -9.7613    6.6812    0.1062 C.ar    1  LIG1        0.1162
     29 N         -10.1174    5.5423    0.6971 N.ar    1  LIG1       -0.2363
     30 H          -6.7505    5.7857   -1.1200 H       1  LIG1        0.0662
     31 S          -9.9725    3.0889    1.5673 S.3     1  LIG1       -0.1227
     32 H          -9.3051    2.1593    0.8762 H       1  LIG1        0.1086
     33 O          -8.1358    7.9449   -1.1739 O.3     1  LIG1       -0.5046
     34 H          -8.7266    8.6763   -0.9500 H       1  LIG1        0.2922
     35 C         -11.2011    8.3786    1.3595 C.ar    1  LIG1        0.1034
     36 C         -10.7096    7.8353    0.1558 C.ar    1  LIG1        0.0390
     37 C         -11.1161    8.4185   -1.0421 C.ar    1  LIG1       -0.0068
     38 C         -11.9537    9.5298   -1.0147 C.ar    1  LIG1        0.1356
     39 C         -12.3488   10.0165    0.2271 C.ar    1  LIG1        0.0702
     40 N         -11.9874    9.4446    1.3701 N.ar    1  LIG1       -0.2447
     41 H         -10.8003    8.0172   -1.9986 H       1  LIG1        0.0662
     42 H         -12.9877   10.8911    0.3023 H       1  LIG1        0.0867
     43 S         -10.7817    7.7679    2.9784 S.3     1  LIG1       -0.1228
     44 H         -10.6237    6.4930    2.6037 H       1  LIG1        0.1086
     45 O         -12.3354   10.0807   -2.1931 O.3     1  LIG1       -0.5052
     46 H         -12.9390   10.8186   -2.0513 H       1  LIG1        0.2922
@<TRIPOS>BOND
     1     9    10    1
     2     9     1    1
     3    45    46    1
     4    45    38    1
     5    41    37    1
     6    21    20    1
     7     1     6   ar
     8     1     2   ar
     9     6     5   ar
    10    33    34    1
    11    33    27    1
    12    30    26    1
    13    37    38   ar
    14    37    36   ar
    15    38    39   ar
    16    20    13    1
    17    26    27   ar
    18    26    25   ar
    19    27    28   ar
    20    13    18   ar
    21    13    14   ar
    22    18    17   ar
    23     8     2    1
    24     2     3   ar
    25     5    14    1
    26     5     4   ar
    27    14    15   ar
    28    17    25    1
    29    17    16   ar
    30    25    24   ar
    31    28    36    1
    32    28    29   ar
    33    36    35   ar
    34    39    42    1
    35    39    40   ar
    36    15    16   ar
    37    15    19    1
    38    16    22    1
    39    24    29   ar
    40    24    31    1
    41    32    31    1
    42    22    23    1
    43     3     4   ar
    44     3     7    1
    45     4    11    1
    46    35    40   ar
    47    35    43    1
    48    11    12    1
    49    44    43    1
