@<TRIPOS>MOLECULE
mol_data/opt/m06hf/geoms/mol2/6gf6gf-6gf-6gf-.out
 46 49 0 0 0
SMALL
GASTEIGER

@<TRIPOS>ATOM
      1 C          -4.0133   -2.1707    0.0263 C.ar    1  LIG1        0.0949
      2 C          -2.6299   -1.9753   -0.0788 C.ar    1  LIG1       -0.0265
      3 C          -2.1600   -0.6828   -0.2134 C.ar    1  LIG1       -0.0155
      4 C          -3.0650    0.3796   -0.2125 C.ar    1  LIG1        0.1429
      5 C          -4.4233    0.0906   -0.0653 C.ar    1  LIG1        0.1161
      6 N          -4.8673   -1.1638    0.0339 N.ar    1  LIG1       -0.2370
      7 H          -1.1060   -0.4656   -0.3233 H       1  LIG1        0.0655
      8 H          -1.9467   -2.8130   -0.0662 H       1  LIG1        0.0645
      9 S          -4.7853   -3.7683    0.1788 S.3     1  LIG1       -0.1234
     10 H          -3.6843   -4.4902   -0.0576 H       1  LIG1        0.1086
     11 O          -2.5772    1.6349   -0.3576 O.3     1  LIG1       -0.5046
     12 H          -3.2920    2.2561   -0.5482 H       1  LIG1        0.2922
     13 C          -6.5695    1.2612   -0.8303 C.ar    1  LIG1        0.1042
     14 C          -5.4253    1.1977   -0.0068 C.ar    1  LIG1        0.0390
     15 C          -5.2368    2.2237    0.9133 C.ar    1  LIG1       -0.0062
     16 C          -6.1272    3.2933    0.9671 C.ar    1  LIG1        0.1435
     17 C          -7.1880    3.3090    0.0567 C.ar    1  LIG1        0.1162
     18 N          -7.3907    2.2975   -0.7858 N.ar    1  LIG1       -0.2363
     19 H          -4.4102    2.2009    1.6144 H       1  LIG1        0.0662
     20 S          -7.0238    0.0399   -2.0392 S.3     1  LIG1       -0.1227
     21 H          -6.4130   -0.9804   -1.4222 H       1  LIG1        0.1086
     22 O          -5.9113    4.2535    1.8966 O.3     1  LIG1       -0.5046
     23 H          -6.6963    4.8060    2.0066 H       1  LIG1        0.2922
     24 C          -9.5366    4.3348    0.0362 C.ar    1  LIG1        0.1042
     25 C          -8.1311    4.4665    0.0153 C.ar    1  LIG1        0.0390
     26 C          -7.6021    5.7538   -0.0184 C.ar    1  LIG1       -0.0062
     27 C          -8.4451    6.8613   -0.0016 C.ar    1  LIG1        0.1435
     28 C          -9.8229    6.6322    0.0416 C.ar    1  LIG1        0.1162
     29 N         -10.3242    5.3994    0.0590 N.ar    1  LIG1       -0.2363
     30 H          -6.5312    5.9184   -0.0551 H       1  LIG1        0.0662
     31 S         -10.4317    2.8022    0.1063 S.3     1  LIG1       -0.1227
     32 H          -9.4612    2.0416   -0.4163 H       1  LIG1        0.1086
     33 O          -7.8858    8.0929   -0.0167 O.3     1  LIG1       -0.5046
     34 H          -8.5549    8.7682    0.1577 H       1  LIG1        0.2922
     35 C         -11.7497    7.9755    1.0462 C.ar    1  LIG1        0.1034
     36 C         -10.7712    7.7871    0.0497 C.ar    1  LIG1        0.0390
     37 C         -10.6736    8.7389   -0.9628 C.ar    1  LIG1       -0.0068
     38 C         -11.5085    9.8521   -0.9416 C.ar    1  LIG1        0.1356
     39 C         -12.4149    9.9657    0.1076 C.ar    1  LIG1        0.0702
     40 N         -12.5305    9.0459    1.0583 N.ar    1  LIG1       -0.2447
     41 H          -9.9658    8.6227   -1.7758 H       1  LIG1        0.0662
     42 H         -13.0779   10.8226    0.1781 H       1  LIG1        0.0867
     43 S         -12.0060    6.8811    2.4259 S.3     1  LIG1       -0.1228
     44 H         -11.6119    5.7669    1.7979 H       1  LIG1        0.1086
     45 O         -11.3922   10.7668   -1.9357 O.3     1  LIG1       -0.5052
     46 H         -12.0515   11.4635   -1.8431 H       1  LIG1        0.2922
@<TRIPOS>BOND
     1    20    21    1
     2    20    13    1
     3    45    46    1
     4    45    38    1
     5    41    37    1
     6    37    38   ar
     7    37    36   ar
     8    38    39   ar
     9    13    18   ar
    10    13    14   ar
    11    18    17   ar
    12    12    11    1
    13    32    31    1
    14    11     4    1
    15     7     3    1
    16     3     4   ar
    17     3     2   ar
    18     4     5   ar
    19     2     8    1
    20     2     1   ar
    21     5    14    1
    22     5     6   ar
    23    10     9    1
    24    30    26    1
    25    26    27   ar
    26    26    25   ar
    27    33    27    1
    28    33    34    1
    29    14    15   ar
    30    27    28   ar
    31    25    24   ar
    32    25    17    1
    33     1     6   ar
    34     1     9    1
    35    24    29   ar
    36    24    31    1
    37    28    36    1
    38    28    29   ar
    39    36    35   ar
    40    17    16   ar
    41    39    42    1
    42    39    40   ar
    43    15    16   ar
    44    15    19    1
    45    16    22    1
    46    35    40   ar
    47    35    43    1
    48    44    43    1
    49    22    23    1
