@<TRIPOS>MOLECULE
mol_data/opt/m06hf/geoms/mol2/6gf6gf-6gf-.out
 35 37 0 0 0
SMALL
GASTEIGER

@<TRIPOS>ATOM
      1 C          -4.0341   -1.9056    1.0049 C.ar    1  LIG1        0.0949
      2 C          -2.8879   -2.0451    0.2120 C.ar    1  LIG1       -0.0265
      3 C          -2.6148   -1.0596   -0.7175 C.ar    1  LIG1       -0.0155
      4 C          -3.4622    0.0444   -0.8197 C.ar    1  LIG1        0.1429
      5 C          -4.5565    0.1213    0.0463 C.ar    1  LIG1        0.1161
      6 N          -4.8257   -0.8524    0.9176 N.ar    1  LIG1       -0.2370
      7 H          -1.7614   -1.1188   -1.3799 H       1  LIG1        0.0655
      8 H          -2.2400   -2.9044    0.3136 H       1  LIG1        0.0645
      9 S          -4.5596   -3.0954    2.2194 S.3     1  LIG1       -0.1234
     10 H          -3.6785   -4.0433    1.8834 H       1  LIG1        0.1086
     11 O          -3.1740    0.9822   -1.7541 O.3     1  LIG1       -0.5046
     12 H          -3.9284    1.5698   -1.8896 H       1  LIG1        0.2922
     13 C          -6.8666    1.2262   -0.0650 C.ar    1  LIG1        0.1042
     14 C          -5.4600    1.3111    0.0220 C.ar    1  LIG1        0.0390
     15 C          -4.8924    2.5811    0.0680 C.ar    1  LIG1       -0.0062
     16 C          -5.6980    3.7151    0.0069 C.ar    1  LIG1        0.1435
     17 C          -7.0804    3.5312   -0.0868 C.ar    1  LIG1        0.1162
     18 N          -7.6185    2.3140   -0.1230 N.ar    1  LIG1       -0.2363
     19 H          -3.8195    2.7109    0.1540 H       1  LIG1        0.0662
     20 S          -7.8035   -0.2805   -0.1686 S.3     1  LIG1       -0.1227
     21 H          -6.8659   -1.0619    0.3802 H       1  LIG1        0.1086
     22 O          -5.0996    4.9283    0.0350 O.3     1  LIG1       -0.5046
     23 H          -5.7371    5.6226   -0.1776 H       1  LIG1        0.2922
     24 C          -8.9592    4.9296   -1.1209 C.ar    1  LIG1        0.1034
     25 C          -7.9924    4.7144   -0.1169 C.ar    1  LIG1        0.0390
     26 C          -7.8761    5.6661    0.8940 C.ar    1  LIG1       -0.0068
     27 C          -8.6766    6.8037    0.8653 C.ar    1  LIG1        0.1356
     28 C          -9.5692    6.9436   -0.1922 C.ar    1  LIG1        0.0702
     29 N          -9.7047    6.0249   -1.1412 N.ar    1  LIG1       -0.2447
     30 H          -7.1791    5.5301    1.7134 H       1  LIG1        0.0662
     31 H         -10.2059    7.8197   -0.2697 H       1  LIG1        0.0867
     32 S          -9.2610    3.8345   -2.4891 S.3     1  LIG1       -0.1228
     33 H          -8.8309    2.7261   -1.8734 H       1  LIG1        0.1086
     34 O          -8.5411    7.7145    1.8610 O.3     1  LIG1       -0.5052
     35 H          -9.1686    8.4382    1.7563 H       1  LIG1        0.2922
@<TRIPOS>BOND
     1    32    33    1
     2    32    24    1
     3    12    11    1
     4    11     4    1
     5     7     3    1
     6    29    24   ar
     7    29    28   ar
     8    24    25   ar
     9     4     3   ar
    10     4     5   ar
    11     3     2   ar
    12    31    28    1
    13    28    27   ar
    14    23    22    1
    15    20    13    1
    16    20    21    1
    17    18    17   ar
    18    18    13   ar
    19    25    17    1
    20    25    26   ar
    21    17    16   ar
    22    13    14   ar
    23    16    22    1
    24    16    15   ar
    25    14     5    1
    26    14    15   ar
    27     5     6   ar
    28    15    19    1
    29     2     8    1
    30     2     1   ar
    31    27    26   ar
    32    27    34    1
    33    26    30    1
    34     6     1   ar
    35     1     9    1
    36    35    34    1
    37    10     9    1
