@<TRIPOS>MOLECULE
mol_data/opt/m06hf/geoms/mol2/6gf6gf-6gf.out
 35 37 0 0 0
SMALL
GASTEIGER

@<TRIPOS>ATOM
      1 C          -4.1689   -2.1099    0.3578 C.ar    1  LIG1        0.0949
      2 C          -2.8253   -2.0015   -0.0238 C.ar    1  LIG1       -0.0265
      3 C          -2.3610   -0.7684   -0.4399 C.ar    1  LIG1       -0.0155
      4 C          -3.2274    0.3253   -0.4425 C.ar    1  LIG1        0.1429
      5 C          -4.5415    0.1294   -0.0106 C.ar    1  LIG1        0.1161
      6 N          -4.9862   -1.0726    0.3609 N.ar    1  LIG1       -0.2370
      7 H          -1.3409   -0.6224   -0.7690 H       1  LIG1        0.0655
      8 H          -2.1686   -2.8598   -0.0026 H       1  LIG1        0.0645
      9 S          -4.9229   -3.6299    0.8976 S.3     1  LIG1       -0.1234
     10 H          -3.8946   -4.4145    0.5663 H       1  LIG1        0.1086
     11 O          -2.7466    1.5183   -0.8664 O.3     1  LIG1       -0.5046
     12 H          -3.4685    2.1463   -0.9976 H       1  LIG1        0.2922
     13 C          -6.7584    1.2848   -0.5653 C.ar    1  LIG1        0.1042
     14 C          -5.4877    1.2842    0.0482 C.ar    1  LIG1        0.0390
     15 C          -5.1069    2.4297    0.7406 C.ar    1  LIG1       -0.0062
     16 C          -5.9415    3.5444    0.7678 C.ar    1  LIG1        0.1435
     17 C          -7.1482    3.4781    0.0646 C.ar    1  LIG1        0.1162
     18 N          -7.5277    2.3612   -0.5524 N.ar    1  LIG1       -0.2363
     19 H          -4.1683    2.4698    1.2819 H       1  LIG1        0.0662
     20 S          -7.4616   -0.0774   -1.4637 S.3     1  LIG1       -0.1227
     21 H          -6.7894   -1.0357   -0.8144 H       1  LIG1        0.1086
     22 O          -5.5374    4.6273    1.4713 O.3     1  LIG1       -0.5046
     23 H          -6.2675    5.2514    1.5779 H       1  LIG1        0.2922
     24 C          -9.4220    4.6261    0.3222 C.ar    1  LIG1        0.1034
     25 C          -8.0484    4.6686    0.0027 C.ar    1  LIG1        0.0390
     26 C          -7.5003    5.8942   -0.3731 C.ar    1  LIG1       -0.0068
     27 C          -8.2989    7.0327   -0.3838 C.ar    1  LIG1        0.1356
     28 C          -9.6311    6.8944   -0.0089 C.ar    1  LIG1        0.0702
     29 N         -10.1652    5.7244    0.3187 N.ar    1  LIG1       -0.2447
     30 H          -6.4597    5.9772   -0.6654 H       1  LIG1        0.0662
     31 H         -10.2932    7.7544    0.0174 H       1  LIG1        0.0867
     32 S         -10.3078    3.1718    0.8324 S.3     1  LIG1       -0.1228
     33 H          -9.5239    2.2986    0.1868 H       1  LIG1        0.1086
     34 O          -7.7390    8.2138   -0.7472 O.3     1  LIG1       -0.5052
     35 H          -8.3924    8.9221   -0.7426 H       1  LIG1        0.2922
@<TRIPOS>BOND
     1    20    21    1
     2    20    13    1
     3    12    11    1
     4    11     4    1
     5     7     3    1
     6    34    35    1
     7    34    27    1
     8    30    26    1
     9    13    18   ar
    10    13    14   ar
    11    18    17   ar
    12     4     3   ar
    13     4     5   ar
    14     3     2   ar
    15    27    26   ar
    16    27    28   ar
    17    26    25   ar
    18     2     8    1
    19     2     1   ar
    20     5    14    1
    21     5     6   ar
    22    28    31    1
    23    28    29   ar
    24    25    17    1
    25    25    24   ar
    26    14    15   ar
    27    17    16   ar
    28    33    32    1
    29    29    24   ar
    30    24    32    1
    31     1     6   ar
    32     1     9    1
    33    10     9    1
    34    15    16   ar
    35    15    19    1
    36    16    22    1
    37    22    23    1
