@<TRIPOS>MOLECULE
mol_data/opt/m06hf/geoms/mol2/6gf6gf-6gf6gf.out
 46 49 0 0 0
SMALL
GASTEIGER

@<TRIPOS>ATOM
      1 C          -3.9050   -2.0814    0.5459 C.ar    1  LIG1        0.0949
      2 C          -2.6018   -1.9569    0.0481 C.ar    1  LIG1       -0.0265
      3 C          -2.2300   -0.7508   -0.5148 C.ar    1  LIG1       -0.0155
      4 C          -3.1437    0.3034   -0.5462 C.ar    1  LIG1        0.1429
      5 C          -4.4088    0.0994    0.0111 C.ar    1  LIG1        0.1161
      6 N          -4.7645   -1.0792    0.5244 N.ar    1  LIG1       -0.2370
      7 H          -1.2468   -0.5960   -0.9381 H       1  LIG1        0.0655
      8 H          -1.9065   -2.7833    0.0939 H       1  LIG1        0.0645
      9 S          -4.5524   -3.5680    1.2813 S.3     1  LIG1       -0.1234
     10 H          -3.5477   -4.3650    0.9037 H       1  LIG1        0.1086
     11 O          -2.7520    1.4691   -1.1147 O.3     1  LIG1       -0.5046
     12 H          -3.5125    2.0429   -1.2718 H       1  LIG1        0.2922
     13 C          -6.7323    1.0908   -0.4153 C.ar    1  LIG1        0.1042
     14 C          -5.4047    1.2126    0.0494 C.ar    1  LIG1        0.0390
     15 C          -5.0188    2.4402    0.5787 C.ar    1  LIG1       -0.0062
     16 C          -5.9066    3.5131    0.5897 C.ar    1  LIG1        0.1435
     17 C          -7.1759    3.3191    0.0374 C.ar    1  LIG1        0.1162
     18 N          -7.5538    2.1276   -0.4212 N.ar    1  LIG1       -0.2363
     19 H          -4.0323    2.5793    1.0061 H       1  LIG1        0.0662
     20 S          -7.4533   -0.3890   -1.0837 S.3     1  LIG1       -0.1227
     21 H          -6.6579   -1.2326   -0.4145 H       1  LIG1        0.1086
     22 O          -5.4898    4.6808    1.1334 O.3     1  LIG1       -0.5046
     23 H          -6.2402    5.2710    1.2814 H       1  LIG1        0.2922
     24 C          -9.4909    4.3605    0.3887 C.ar    1  LIG1        0.1042
     25 C          -8.1487    4.4498   -0.0394 C.ar    1  LIG1        0.0390
     26 C          -7.7204    5.6653   -0.5672 C.ar    1  LIG1       -0.0062
     27 C          -8.5811    6.7581   -0.6079 C.ar    1  LIG1        0.1435
     28 C          -9.8689    6.5967   -0.0876 C.ar    1  LIG1        0.1162
     29 N         -10.2872    5.4182    0.3660 N.ar    1  LIG1       -0.2363
     30 H          -6.7206    5.7796   -0.9702 H       1  LIG1        0.0662
     31 S         -10.2761    2.9106    1.0477 S.3     1  LIG1       -0.1227
     32 H          -9.4671    2.0312    0.4451 H       1  LIG1        0.1086
     33 O          -8.1249    7.9133   -1.1463 O.3     1  LIG1       -0.5046
     34 H          -8.8572    8.5248   -1.2992 H       1  LIG1        0.2922
     35 C         -12.1280    7.7070   -0.5489 C.ar    1  LIG1        0.1034
     36 C         -10.8131    7.7534   -0.0405 C.ar    1  LIG1        0.0390
     37 C         -10.3694    8.9492    0.5219 C.ar    1  LIG1       -0.0068
     38 C         -11.2075   10.0588    0.5334 C.ar    1  LIG1        0.1356
     39 C         -12.4721    9.9226   -0.0297 C.ar    1  LIG1        0.0702
     40 N         -12.9095    8.7786   -0.5405 N.ar    1  LIG1       -0.2447
     41 H          -9.3813    9.0308    0.9605 H       1  LIG1        0.0662
     42 H         -13.1595   10.7626   -0.0609 H       1  LIG1        0.0867
     43 S         -12.8815    6.2940   -1.3198 S.3     1  LIG1       -0.1228
     44 H         -12.1429    5.3735   -0.6914 H       1  LIG1        0.1086
     45 O         -10.7501   11.2118    1.0830 O.3     1  LIG1       -0.5052
     46 H         -11.4281   11.8963    1.0639 H       1  LIG1        0.2922
@<TRIPOS>BOND
     1    43    44    1
     2    43    35    1
     3    34    33    1
     4    12    11    1
     5    33    27    1
     6    11     4    1
     7    20    13    1
     8    20    21    1
     9    30    26    1
    10     7     3    1
    11    27    26   ar
    12    27    28   ar
    13    26    25   ar
    14    35    40   ar
    15    35    36   ar
    16     4     3   ar
    17     4     5   ar
    18    40    39   ar
    19     3     2   ar
    20    18    13   ar
    21    18    17   ar
    22    13    14   ar
    23    28    36    1
    24    28    29   ar
    25    42    39    1
    26    36    37   ar
    27    25    17    1
    28    25    24   ar
    29    39    38   ar
    30     5    14    1
    31     5     6   ar
    32    17    16   ar
    33     2     8    1
    34     2     1   ar
    35    14    15   ar
    36    29    24   ar
    37    24    31    1
    38    32    31    1
    39    37    38   ar
    40    37    41    1
    41     6     1   ar
    42    38    45    1
    43     1     9    1
    44    15    16   ar
    45    15    19    1
    46    16    22    1
    47    10     9    1
    48    46    45    1
    49    22    23    1
