@<TRIPOS>MOLECULE
mol_data/opt/m06hf/geoms/mol2/6gf6gf6gf-.out
 35 37 0 0 0
SMALL
GASTEIGER

@<TRIPOS>ATOM
      1 C          -4.1676   -2.1090   -0.3622 C.ar    1  LIG1        0.0949
      2 C          -2.8303   -2.0051    0.0420 C.ar    1  LIG1       -0.0265
      3 C          -2.3716   -0.7759    0.4753 C.ar    1  LIG1       -0.0155
      4 C          -3.2369    0.3188    0.4724 C.ar    1  LIG1        0.1429
      5 C          -4.5440    0.1277    0.0176 C.ar    1  LIG1        0.1161
      6 N          -4.9837   -1.0708   -0.3705 N.ar    1  LIG1       -0.2370
      7 H          -1.3569   -0.6336    0.8221 H       1  LIG1        0.0655
      8 H          -2.1741   -2.8639    0.0248 H       1  LIG1        0.0645
      9 S          -4.9142   -3.6239   -0.9261 S.3     1  LIG1       -0.1234
     10 H          -3.8922   -4.4122   -0.5844 H       1  LIG1        0.1086
     11 O          -2.7620    1.5078    0.9135 O.3     1  LIG1       -0.5046
     12 H          -3.4853    2.1356    1.0379 H       1  LIG1        0.2922
     13 C          -6.7685    1.2811    0.5453 C.ar    1  LIG1        0.1042
     14 C          -5.4880    1.2839   -0.0474 C.ar    1  LIG1        0.0390
     15 C          -5.0950    2.4345   -0.7245 C.ar    1  LIG1       -0.0062
     16 C          -5.9279    3.5502   -0.7566 C.ar    1  LIG1        0.1435
     17 C          -7.1459    3.4797   -0.0736 C.ar    1  LIG1        0.1162
     18 N          -7.5365    2.3583    0.5283 N.ar    1  LIG1       -0.2363
     19 H          -4.1476    2.4778   -1.2502 H       1  LIG1        0.0662
     20 S          -7.4875   -0.0874    1.4214 S.3     1  LIG1       -0.1227
     21 H          -6.8058   -1.0413    0.7756 H       1  LIG1        0.1086
     22 O          -5.5114    4.6382   -1.4448 O.3     1  LIG1       -0.5046
     23 H          -6.2391    5.2639   -1.5584 H       1  LIG1        0.2922
     24 C          -9.4142    4.6321   -0.3591 C.ar    1  LIG1        0.1034
     25 C          -8.0460    4.6706   -0.0170 C.ar    1  LIG1        0.0390
     26 C          -7.5028    5.8927    0.3772 C.ar    1  LIG1       -0.0068
     27 C          -8.3004    7.0319    0.3839 C.ar    1  LIG1        0.1356
     28 C          -9.6265    6.8980   -0.0136 C.ar    1  LIG1        0.0702
     29 N         -10.1563    5.7311   -0.3591 N.ar    1  LIG1       -0.2447
     30 H          -6.4671    5.9722    0.6871 H       1  LIG1        0.0662
     31 H         -10.2873    7.7589   -0.0440 H       1  LIG1        0.0867
     32 S         -10.2930    3.1828   -0.8950 S.3     1  LIG1       -0.1228
     33 H          -9.5205    2.3037   -0.2436 H       1  LIG1        0.1086
     34 O          -7.7454    8.2095    0.7657 O.3     1  LIG1       -0.5052
     35 H          -8.3980    8.9185    0.7559 H       1  LIG1        0.2922
@<TRIPOS>BOND
     1    23    22    1
     2    22    16    1
     3    19    15    1
     4     9    10    1
     5     9     1    1
     6    32    24    1
     7    32    33    1
     8    16    15   ar
     9    16    17   ar
    10    15    14   ar
    11     6     1   ar
    12     6     5   ar
    13     1     2   ar
    14    24    29   ar
    15    24    25   ar
    16    29    28   ar
    17    17    25    1
    18    17    18   ar
    19    14     5    1
    20    14    13   ar
    21    31    28    1
    22    25    26   ar
    23    28    27   ar
    24     5     4   ar
    25     8     2    1
    26     2     3   ar
    27    26    27   ar
    28    26    30    1
    29    27    34    1
    30     4     3   ar
    31     4    11    1
    32     3     7    1
    33    18    13   ar
    34    13    20    1
    35    35    34    1
    36    21    20    1
    37    11    12    1
