@<TRIPOS>MOLECULE
mol_data/opt/m06hf/geoms/mol2/6gf6gf.out
 24 25 0 0 0
SMALL
GASTEIGER

@<TRIPOS>ATOM
      1 C          -4.3647   -2.0071   -0.5495 C.ar    1  LIG1        0.0949
      2 C          -3.0286   -2.0236   -0.1314 C.ar    1  LIG1       -0.0265
      3 C          -2.4961   -0.8624    0.3970 C.ar    1  LIG1       -0.0155
      4 C          -3.2898    0.2820    0.4793 C.ar    1  LIG1        0.1429
      5 C          -4.6029    0.2130    0.0055 C.ar    1  LIG1        0.1161
      6 N          -5.1107   -0.9195   -0.4823 N.ar    1  LIG1       -0.2370
      7 H          -1.4781   -0.8138    0.7590 H       1  LIG1        0.0655
      8 H          -2.4313   -2.9216   -0.2053 H       1  LIG1        0.0645
      9 S          -5.2242   -3.4200   -1.2091 S.3     1  LIG1       -0.1234
     10 H          -4.2263   -4.2933   -1.0385 H       1  LIG1        0.1086
     11 O          -2.7458    1.3983    1.0202 O.3     1  LIG1       -0.5046
     12 H          -3.4292    2.0610    1.1842 H       1  LIG1        0.2922
     13 C          -6.7535    1.4524    0.6340 C.ar    1  LIG1        0.1034
     14 C          -5.4767    1.4259    0.0343 C.ar    1  LIG1        0.0390
     15 C          -5.0046    2.5998   -0.5492 C.ar    1  LIG1       -0.0068
     16 C          -5.7755    3.7566   -0.4935 C.ar    1  LIG1        0.1356
     17 C          -7.0022    3.6887    0.1583 C.ar    1  LIG1        0.0702
     18 N          -7.4698    2.5658    0.6910 N.ar    1  LIG1       -0.2447
     19 H          -4.0476    2.6252   -1.0577 H       1  LIG1        0.0662
     20 H          -7.6347    4.5669    0.2438 H       1  LIG1        0.0867
     21 S          -7.5313    0.0615    1.4255 S.3     1  LIG1       -0.1228
     22 H          -6.8704   -0.8720    0.7338 H       1  LIG1        0.1086
     23 O          -5.2933    4.8856   -1.0711 O.3     1  LIG1       -0.5052
     24 H          -5.9208    5.6113   -0.9840 H       1  LIG1        0.2922
@<TRIPOS>BOND
     1     9    10    1
     2     9     1    1
     3    23    24    1
     4    23    16    1
     5    19    15    1
     6     1     6   ar
     7     1     2   ar
     8    15    16   ar
     9    15    14   ar
    10    16    17   ar
    11     6     5   ar
    12     8     2    1
    13     2     3   ar
    14     5    14    1
    15     5     4   ar
    16    14    13   ar
    17    17    20    1
    18    17    18   ar
    19     3     4   ar
    20     3     7    1
    21     4    11    1
    22    13    18   ar
    23    13    21    1
    24    22    21    1
    25    11    12    1
