@<TRIPOS>MOLECULE
mol_data/opt/m06hf/geoms/mol2/6gf6gf6gf6gf-.out
 46 49 0 0 0
SMALL
GASTEIGER

@<TRIPOS>ATOM
      1 C          -3.6940   -1.8733   -0.9558 C.ar    1  LIG1        0.0949
      2 C          -2.6142   -1.9640   -0.0676 C.ar    1  LIG1       -0.0265
      3 C          -2.4857   -0.9906    0.9046 C.ar    1  LIG1       -0.0155
      4 C          -3.4071    0.0561    0.9557 C.ar    1  LIG1        0.1429
      5 C          -4.4259    0.0876   -0.0002 C.ar    1  LIG1        0.1161
      6 N          -4.5582   -0.8758   -0.9136 N.ar    1  LIG1       -0.2370
      7 H          -1.6906   -1.0153    1.6380 H       1  LIG1        0.0655
      8 H          -1.9061   -2.7782   -0.1320 H       1  LIG1        0.0645
      9 S          -4.0247   -3.0564   -2.2444 S.3     1  LIG1       -0.1234
     10 H          -3.1071   -3.9492   -1.8589 H       1  LIG1        0.1086
     11 O          -3.2600    0.9851    1.9309 O.3     1  LIG1       -0.5046
     12 H          -4.0607    1.5181    2.0187 H       1  LIG1        0.2922
     13 C          -6.8005    1.0493   -0.0470 C.ar    1  LIG1        0.1042
     14 C          -5.3994    1.2210   -0.0289 C.ar    1  LIG1        0.0390
     15 C          -4.9081    2.5224   -0.0170 C.ar    1  LIG1       -0.0062
     16 C          -5.7843    3.6051   -0.0020 C.ar    1  LIG1        0.1435
     17 C          -7.1551    3.3360   -0.0106 C.ar    1  LIG1        0.1162
     18 N          -7.6200    2.0881   -0.0287 N.ar    1  LIG1       -0.2363
     19 H          -3.8417    2.7173   -0.0190 H       1  LIG1        0.0662
     20 S          -7.6447   -0.5139   -0.0271 S.3     1  LIG1       -0.1227
     21 H          -6.6337   -1.2294   -0.5364 H       1  LIG1        0.1086
     22 O          -5.2592    4.8516    0.0270 O.3     1  LIG1       -0.5046
     23 H          -5.9479    5.5053    0.2056 H       1  LIG1        0.2922
     24 C          -9.2039    4.5766    0.8901 C.ar    1  LIG1        0.1042
     25 C          -8.1398    4.4591   -0.0279 C.ar    1  LIG1        0.0390
     26 C          -8.0171    5.4456   -1.0020 C.ar    1  LIG1       -0.0062
     27 C          -8.8899    6.5307   -1.0158 C.ar    1  LIG1        0.1435
     28 C          -9.8657    6.6015   -0.0166 C.ar    1  LIG1        0.1162
     29 N         -10.0074    5.6274    0.8795 N.ar    1  LIG1       -0.2363
     30 H          -7.2612    5.3772   -1.7764 H       1  LIG1        0.0662
     31 S          -9.5728    3.4094    2.1792 S.3     1  LIG1       -0.1227
     32 H          -9.1060    2.3383    1.5251 H       1  LIG1        0.1086
     33 O          -8.7449    7.4536   -1.9941 O.3     1  LIG1       -0.5046
     34 H          -9.5187    8.0315   -2.0302 H       1  LIG1        0.2922
     35 C         -12.1910    7.6610    0.1431 C.ar    1  LIG1        0.1034
     36 C         -10.7866    7.7756    0.0580 C.ar    1  LIG1        0.0390
     37 C         -10.2334    9.0545    0.0315 C.ar    1  LIG1       -0.0068
     38 C         -11.0674   10.1674    0.0518 C.ar    1  LIG1        0.1356
     39 C         -12.4403    9.9488    0.0947 C.ar    1  LIG1        0.0702
     40 N         -12.9710    8.7333    0.1490 N.ar    1  LIG1       -0.2447
     41 H          -9.1598    9.2015    0.0048 H       1  LIG1        0.0662
     42 H         -13.1359   10.7826    0.0946 H       1  LIG1        0.0867
     43 S         -13.0933    6.1293    0.1768 S.3     1  LIG1       -0.1228
     44 H         -12.1137    5.4010    0.7271 H       1  LIG1        0.1086
     45 O         -10.5017   11.4001    0.0225 O.3     1  LIG1       -0.5052
     46 H         -11.1733   12.0896    0.0703 H       1  LIG1        0.2922
@<TRIPOS>BOND
     1     9    10    1
     2     9     1    1
     3    34    33    1
     4    33    27    1
     5    30    26    1
     6    27    26   ar
     7    27    28   ar
     8    26    25   ar
     9     1     6   ar
    10     1     2   ar
    11     6     5   ar
    12    21    20    1
    13     8     2    1
    14     2     3   ar
    15    13    14   ar
    16    13    18   ar
    17    13    20    1
    18    14    15   ar
    19    14     5    1
    20    18    17   ar
    21    25    17    1
    22    25    24   ar
    23    19    15    1
    24    15    16   ar
    25    28    36    1
    26    28    29   ar
    27    17    16   ar
    28    16    22    1
    29     5     4   ar
    30    41    37    1
    31    45    38    1
    32    45    46    1
    33    22    23    1
    34    37    38   ar
    35    37    36   ar
    36    38    39   ar
    37    36    35   ar
    38    42    39    1
    39    39    40   ar
    40    35    40   ar
    41    35    43    1
    42    43    44    1
    43    29    24   ar
    44    24    31    1
    45     3     4   ar
    46     3     7    1
    47     4    11    1
    48    32    31    1
    49    11    12    1
