@<TRIPOS>MOLECULE
mol_data/opt/m06hf/geoms/mol2/6gf6gf6gf.out
 35 37 0 0 0
SMALL
GASTEIGER

@<TRIPOS>ATOM
      1 C          -4.1684   -2.1098   -0.3568 C.ar    1  LIG1        0.0949
      2 C          -2.8278   -2.0033    0.0360 C.ar    1  LIG1       -0.0265
      3 C          -2.3662   -0.7717    0.4594 C.ar    1  LIG1       -0.0155
      4 C          -3.2320    0.3225    0.4583 C.ar    1  LIG1        0.1429
      5 C          -4.5427    0.1286    0.0151 C.ar    1  LIG1        0.1161
      6 N          -4.9850   -1.0720   -0.3635 N.ar    1  LIG1       -0.2370
      7 H          -1.3488   -0.6273    0.7973 H       1  LIG1        0.0655
      8 H          -2.1714   -2.8619    0.0176 H       1  LIG1        0.0645
      9 S          -4.9188   -3.6277   -0.9072 S.3     1  LIG1       -0.1234
     10 H          -3.8938   -4.4140   -0.5698 H       1  LIG1        0.1086
     11 O          -2.7541    1.5139    0.8896 O.3     1  LIG1       -0.5046
     12 H          -3.4767    2.1419    1.0168 H       1  LIG1        0.2922
     13 C          -6.7634    1.2835    0.5553 C.ar    1  LIG1        0.1042
     14 C          -5.4878    1.2841   -0.0479 C.ar    1  LIG1        0.0390
     15 C          -5.1009    2.4314   -0.7338 C.ar    1  LIG1       -0.0062
     16 C          -5.9347    3.5466   -0.7645 C.ar    1  LIG1        0.1435
     17 C          -7.1470    3.4788   -0.0713 C.ar    1  LIG1        0.1162
     18 N          -7.5321    2.3603    0.5393 N.ar    1  LIG1       -0.2363
     19 H          -4.1579    2.4726   -1.2673 H       1  LIG1        0.0662
     20 S          -7.4745   -0.0811    1.4440 S.3     1  LIG1       -0.1227
     21 H          -6.7977   -1.0377    0.7971 H       1  LIG1        0.1086
     22 O          -5.5243    4.6314   -1.4615 O.3     1  LIG1       -0.5046
     23 H          -6.2532    5.2562   -1.5721 H       1  LIG1        0.2922
     24 C          -9.4182    4.6287   -0.3439 C.ar    1  LIG1        0.1034
     25 C          -8.0472    4.6696   -0.0132 C.ar    1  LIG1        0.0390
     26 C          -7.5015    5.8939    0.3705 C.ar    1  LIG1       -0.0068
     27 C          -8.2997    7.0328    0.3780 C.ar    1  LIG1        0.1356
     28 C          -9.6289    6.8962   -0.0080 C.ar    1  LIG1        0.0702
     29 N         -10.1609    5.7274   -0.3433 N.ar    1  LIG1       -0.2447
     30 H          -6.4633    5.9755    0.6715 H       1  LIG1        0.0662
     31 H         -10.2903    7.7566   -0.0372 H       1  LIG1        0.0867
     32 S         -10.3005    3.1763   -0.8655 S.3     1  LIG1       -0.1228
     33 H          -9.5222    2.3008   -0.2161 H       1  LIG1        0.1086
     34 O          -7.7422    8.2124    0.7493 O.3     1  LIG1       -0.5052
     35 H          -8.3952    8.9211    0.7415 H       1  LIG1        0.2922
@<TRIPOS>BOND
     1    23    22    1
     2    22    16    1
     3    19    15    1
     4     9    10    1
     5     9     1    1
     6    32    24    1
     7    32    33    1
     8    16    15   ar
     9    16    17   ar
    10    15    14   ar
    11     6     1   ar
    12     6     5   ar
    13     1     2   ar
    14    24    29   ar
    15    24    25   ar
    16    29    28   ar
    17    17    25    1
    18    17    18   ar
    19    14     5    1
    20    14    13   ar
    21    31    28    1
    22    25    26   ar
    23    28    27   ar
    24     5     4   ar
    25     8     2    1
    26     2     3   ar
    27    26    27   ar
    28    26    30    1
    29    27    34    1
    30     4     3   ar
    31     4    11    1
    32     3     7    1
    33    18    13   ar
    34    13    20    1
    35    35    34    1
    36    21    20    1
    37    11    12    1
