@<TRIPOS>MOLECULE
mol_data/opt/m06hf/geoms/mol2/6gf6gf-.out
 24 25 0 0 0
SMALL
GASTEIGER

@<TRIPOS>ATOM
      1 C          -4.3654   -2.0109    0.5306 C.ar    1  LIG1        0.0949
      2 C          -3.0266   -2.0227    0.1212 C.ar    1  LIG1       -0.0265
      3 C          -2.4918   -0.8568   -0.3943 C.ar    1  LIG1       -0.0155
      4 C          -3.2861    0.2875   -0.4724 C.ar    1  LIG1        0.1429
      5 C          -4.6023    0.2133   -0.0078 C.ar    1  LIG1        0.1161
      6 N          -5.1121   -0.9236    0.4673 N.ar    1  LIG1       -0.2370
      7 H          -1.4715   -0.8042   -0.7491 H       1  LIG1        0.0655
      8 H          -2.4289   -2.9207    0.1917 H       1  LIG1        0.0645
      9 S          -5.2277   -3.4300    1.1730 S.3     1  LIG1       -0.1234
     10 H          -4.2280   -4.3010    1.0019 H       1  LIG1        0.1086
     11 O          -2.7398    1.4087   -1.0005 O.3     1  LIG1       -0.5046
     12 H          -3.4227    2.0720   -1.1638 H       1  LIG1        0.2922
     13 C          -6.7500    1.4556   -0.6404 C.ar    1  LIG1        0.1034
     14 C          -5.4771    1.4256   -0.0326 C.ar    1  LIG1        0.0390
     15 C          -5.0100    2.5952    0.5634 C.ar    1  LIG1       -0.0068
     16 C          -5.7818    3.7516    0.5119 C.ar    1  LIG1        0.1356
     17 C          -7.0041    3.6878   -0.1484 C.ar    1  LIG1        0.0702
     18 N          -7.4670    2.5687   -0.6932 N.ar    1  LIG1       -0.2447
     19 H          -4.0564    2.6175    1.0782 H       1  LIG1        0.0662
     20 H          -7.6370    4.5660   -0.2311 H       1  LIG1        0.0867
     21 S          -7.5212    0.0704   -1.4481 S.3     1  LIG1       -0.1228
     22 H          -6.8641   -0.8681   -0.7593 H       1  LIG1        0.1086
     23 O          -5.3045    4.8764    1.1017 O.3     1  LIG1       -0.5052
     24 H          -5.9322    5.6022    1.0164 H       1  LIG1        0.2922
@<TRIPOS>BOND
     1    21    22    1
     2    21    13    1
     3    12    11    1
     4    11     4    1
     5     7     3    1
     6    18    13   ar
     7    18    17   ar
     8    13    14   ar
     9     4     3   ar
    10     4     5   ar
    11     3     2   ar
    12    20    17    1
    13    17    16   ar
    14    14     5    1
    15    14    15   ar
    16     5     6   ar
    17     2     8    1
    18     2     1   ar
    19     6     1   ar
    20    16    15   ar
    21    16    23    1
    22     1     9    1
    23    15    19    1
    24    10     9    1
    25    24    23    1
