@<TRIPOS>MOLECULE
mol_data/opt/m06hf/geoms/mol2/6gf6gf-6gf6gf-.out
 46 49 0 0 0
SMALL
GASTEIGER

@<TRIPOS>ATOM
      1 C          -3.9243   -2.0941    0.5323 C.ar    1  LIG1        0.0949
      2 C          -2.6077   -1.9616    0.0733 C.ar    1  LIG1       -0.0265
      3 C          -2.2199   -0.7455   -0.4564 C.ar    1  LIG1       -0.0155
      4 C          -3.1320    0.3100   -0.4934 C.ar    1  LIG1        0.1429
      5 C          -4.4120    0.0968    0.0248 C.ar    1  LIG1        0.1161
      6 N          -4.7823   -1.0908    0.5058 N.ar    1  LIG1       -0.2370
      7 H          -1.2253   -0.5838   -0.8494 H       1  LIG1        0.0655
      8 H          -1.9144   -2.7894    0.1228 H       1  LIG1        0.0645
      9 S          -4.5925   -3.5936    1.2215 S.3     1  LIG1       -0.1234
     10 H          -3.5781   -4.3844    0.8570 H       1  LIG1        0.1086
     11 O          -2.7241    1.4857   -1.0288 O.3     1  LIG1       -0.5046
     12 H          -3.4797    2.0632   -1.1961 H       1  LIG1        0.2922
     13 C          -6.7224    1.0982   -0.4470 C.ar    1  LIG1        0.1042
     14 C          -5.4081    1.2101    0.0564 C.ar    1  LIG1        0.0390
     15 C          -5.0364    2.4272    0.6191 C.ar    1  LIG1       -0.0062
     16 C          -5.9238    3.5006    0.6257 C.ar    1  LIG1        0.1435
     17 C          -7.1774    3.3181    0.0350 C.ar    1  LIG1        0.1162
     18 N          -7.5430    2.1358   -0.4561 N.ar    1  LIG1       -0.2363
     19 H          -4.0621    2.5573    1.0761 H       1  LIG1        0.0662
     20 S          -7.4254   -0.3680   -1.1627 S.3     1  LIG1       -0.1227
     21 H          -6.6492   -1.2247   -0.4877 H       1  LIG1        0.1086
     22 O          -5.5217    4.6575    1.2025 O.3     1  LIG1       -0.5046
     23 H          -6.2755    5.2456    1.3407 H       1  LIG1        0.2922
     24 C          -9.5007    4.3550    0.3417 C.ar    1  LIG1        0.1042
     25 C          -8.1472    4.4510   -0.0475 C.ar    1  LIG1        0.0390
     26 C          -7.7040    5.6757   -0.5405 C.ar    1  LIG1       -0.0062
     27 C          -8.5627    6.7699   -0.5845 C.ar    1  LIG1        0.1435
     28 C          -9.8644    6.6002   -0.1030 C.ar    1  LIG1        0.1162
     29 N         -10.2956    5.4137    0.3168 N.ar    1  LIG1       -0.2363
     30 H          -6.6934    5.7966   -0.9135 H       1  LIG1        0.0662
     31 S         -10.3045    2.8939    0.9515 S.3     1  LIG1       -0.1227
     32 H          -9.4796    2.0251    0.3552 H       1  LIG1        0.1086
     33 O          -8.0913    7.9345   -1.0884 O.3     1  LIG1       -0.5046
     34 H          -8.8188    8.5495   -1.2500 H       1  LIG1        0.2922
     35 C         -12.1095    7.7210   -0.6057 C.ar    1  LIG1        0.1034
     36 C         -10.8091    7.7566   -0.0603 C.ar    1  LIG1        0.0390
     37 C         -10.3805    8.9413    0.5363 C.ar    1  LIG1       -0.0068
     38 C         -11.2181   10.0513    0.5454 C.ar    1  LIG1        0.1356
     39 C         -12.4667    9.9269   -0.0549 C.ar    1  LIG1        0.0702
     40 N         -12.8904    8.7930   -0.5988 N.ar    1  LIG1       -0.2447
     41 H          -9.4049    9.0137    1.0035 H       1  LIG1        0.0662
     42 H         -13.1526   10.7680   -0.0893 H       1  LIG1        0.0867
     43 S         -12.8420    6.3234   -1.4233 S.3     1  LIG1       -0.1228
     44 H         -12.1215    5.3906   -0.7921 H       1  LIG1        0.1086
     45 O         -10.7756   11.1934    1.1289 O.3     1  LIG1       -0.5052
     46 H         -11.4524   11.8789    1.1038 H       1  LIG1        0.2922
@<TRIPOS>BOND
     1    43    44    1
     2    43    35    1
     3    34    33    1
     4    12    11    1
     5    20    21    1
     6    20    13    1
     7    33    27    1
     8    11     4    1
     9    30    26    1
    10     7     3    1
    11    35    40   ar
    12    35    36   ar
    13    40    39   ar
    14    27    26   ar
    15    27    28   ar
    16    26    25   ar
    17     4     3   ar
    18     4     5   ar
    19     3     2   ar
    20    18    13   ar
    21    18    17   ar
    22    13    14   ar
    23    28    36    1
    24    28    29   ar
    25    42    39    1
    26    36    37   ar
    27    39    38   ar
    28    25    17    1
    29    25    24   ar
    30     5    14    1
    31     5     6   ar
    32    17    16   ar
    33    14    15   ar
    34     2     8    1
    35     2     1   ar
    36    29    24   ar
    37    24    31    1
    38    32    31    1
    39     6     1   ar
    40     1     9    1
    41    37    38   ar
    42    37    41    1
    43    38    45    1
    44    15    16   ar
    45    15    19    1
    46    16    22    1
    47    10     9    1
    48    46    45    1
    49    22    23    1
