@<TRIPOS>MOLECULE
mol_data/opt/m06hf/geoms/mol2/6gf6gf6gf-6gf.out
 46 49 0 0 0
SMALL
GASTEIGER

@<TRIPOS>ATOM
      1 C          -3.9191   -2.0910   -0.5365 C.ar    1  LIG1        0.0949
      2 C          -2.6093   -1.9631   -0.0572 C.ar    1  LIG1       -0.0265
      3 C          -2.2288   -0.7519    0.4884 C.ar    1  LIG1       -0.0155
      4 C          -3.1409    0.3038    0.5212 C.ar    1  LIG1        0.1429
      5 C          -4.4134    0.0957   -0.0173 C.ar    1  LIG1        0.1161
      6 N          -4.7771   -1.0876   -0.5138 N.ar    1  LIG1       -0.2370
      7 H          -1.2399   -0.5940    0.8972 H       1  LIG1        0.0655
      8 H          -1.9156   -2.7908   -0.1037 H       1  LIG1        0.0645
      9 S          -4.5778   -3.5842   -1.2481 S.3     1  LIG1       -0.1234
     10 H          -3.5691   -4.3786   -0.8758 H       1  LIG1        0.1086
     11 O          -2.7404    1.4747    1.0726 O.3     1  LIG1       -0.5046
     12 H          -3.4981    2.0510    1.2338 H       1  LIG1        0.2922
     13 C          -6.7300    1.0942    0.4295 C.ar    1  LIG1        0.1042
     14 C          -5.4084    1.2097   -0.0538 C.ar    1  LIG1        0.0390
     15 C          -5.0282    2.4313   -0.6006 C.ar    1  LIG1       -0.0062
     16 C          -5.9150    3.5052   -0.6109 C.ar    1  LIG1        0.1435
     17 C          -7.1771    3.3184   -0.0400 C.ar    1  LIG1        0.1162
     18 N          -7.5502    2.1320    0.4355 N.ar    1  LIG1       -0.2363
     19 H          -4.0473    2.5649   -1.0423 H       1  LIG1        0.0662
     20 S          -7.4438   -0.3778    1.1223 S.3     1  LIG1       -0.1227
     21 H          -6.6582   -1.2291    0.4513 H       1  LIG1        0.1086
     22 O          -5.5040    4.6668   -1.1719 O.3     1  LIG1       -0.5046
     23 H          -6.2556    5.2564   -1.3160 H       1  LIG1        0.2922
     24 C          -9.4953    4.3589   -0.3716 C.ar    1  LIG1        0.1042
     25 C          -8.1475    4.4509    0.0380 C.ar    1  LIG1        0.0390
     26 C          -7.7111    5.6712    0.5479 C.ar    1  LIG1       -0.0062
     27 C          -8.5699    6.7654    0.5888 C.ar    1  LIG1        0.1435
     28 C          -9.8646    6.6004    0.0870 C.ar    1  LIG1        0.1162
     29 N         -10.2902    5.4178   -0.3492 N.ar    1  LIG1       -0.2363
     30 H          -6.7060    5.7883    0.9365 H       1  LIG1        0.0662
     31 S         -10.2907    2.9034   -1.0055 S.3     1  LIG1       -0.1227
     32 H          -9.4749    2.0292   -0.4047 H       1  LIG1        0.1086
     33 O          -8.1055    7.9254    1.1094 O.3     1  LIG1       -0.5046
     34 H          -8.8351    8.5393    1.2658 H       1  LIG1        0.2922
     35 C         -12.1163    7.7180    0.5667 C.ar    1  LIG1        0.1034
     36 C         -10.8082    7.7576    0.0405 C.ar    1  LIG1        0.0390
     37 C         -10.3706    8.9471   -0.5398 C.ar    1  LIG1       -0.0068
     38 C         -11.2076   10.0576   -0.5515 C.ar    1  LIG1        0.1356
     39 C         -12.4648    9.9287    0.0296 C.ar    1  LIG1        0.0702
     40 N         -12.8967    8.7904    0.5576 N.ar    1  LIG1       -0.2447
     41 H          -9.3882    9.0231   -0.9921 H       1  LIG1        0.0662
     42 H         -13.1508   10.7697    0.0612 H       1  LIG1        0.0867
     43 S         -12.8611    6.3139    1.3617 S.3     1  LIG1       -0.1228
     44 H         -12.1319    5.3861    0.7330 H       1  LIG1        0.1086
     45 O         -10.7562   11.2044   -1.1188 O.3     1  LIG1       -0.5052
     46 H         -11.4331   11.8899   -1.0977 H       1  LIG1        0.2922
@<TRIPOS>BOND
     1    23    22    1
     2     9    10    1
     3     9     1    1
     4    22    16    1
     5    45    46    1
     6    45    38    1
     7    19    15    1
     8    31    32    1
     9    31    24    1
    10    41    37    1
    11    16    15   ar
    12    16    17   ar
    13    15    14   ar
    14    38    37   ar
    15    38    39   ar
    16    37    36   ar
    17     1     6   ar
    18     1     2   ar
    19     6     5   ar
    20    24    29   ar
    21    24    25   ar
    22    29    28   ar
    23     8     2    1
    24     2     3   ar
    25    14     5    1
    26    14    13   ar
    27    17    25    1
    28    17    18   ar
    29     5     4   ar
    30    39    42    1
    31    39    40   ar
    32    25    26   ar
    33    36    28    1
    34    36    35   ar
    35    28    27   ar
    36    13    18   ar
    37    13    20    1
    38    21    20    1
    39     3     4   ar
    40     3     7    1
    41     4    11    1
    42    26    27   ar
    43    26    30    1
    44    40    35   ar
    45    35    43    1
    46    27    33    1
    47    44    43    1
    48    11    12    1
    49    33    34    1
