@<TRIPOS>MOLECULE
mol_data/opt/m06hf/geoms/mol2/6gf6gf-6gf-6gf.out
 46 49 0 0 0
SMALL
GASTEIGER

@<TRIPOS>ATOM
      1 C          -4.0144   -2.1713    0.0351 C.ar    1  LIG1        0.0949
      2 C          -2.6317   -1.9768   -0.0795 C.ar    1  LIG1       -0.0265
      3 C          -2.1623   -0.6851   -0.2234 C.ar    1  LIG1       -0.0155
      4 C          -3.0671    0.3775   -0.2223 C.ar    1  LIG1        0.1429
      5 C          -4.4246    0.0896   -0.0654 C.ar    1  LIG1        0.1161
      6 N          -4.8682   -1.1642    0.0429 N.ar    1  LIG1       -0.2370
      7 H          -1.1090   -0.4687   -0.3409 H       1  LIG1        0.0655
      8 H          -1.9487   -2.8146   -0.0668 H       1  LIG1        0.0645
      9 S          -4.7858   -3.7679    0.2004 S.3     1  LIG1       -0.1234
     10 H          -3.6865   -4.4913   -0.0390 H       1  LIG1        0.1086
     11 O          -2.5800    1.6319   -0.3767 O.3     1  LIG1       -0.5046
     12 H          -3.2957    2.2523   -0.5661 H       1  LIG1        0.2922
     13 C          -6.5752    1.2568   -0.8230 C.ar    1  LIG1        0.1042
     14 C          -5.4259    1.1972   -0.0063 C.ar    1  LIG1        0.0390
     15 C          -5.2316    2.2278    0.9074 C.ar    1  LIG1       -0.0062
     16 C          -6.1213    3.2979    0.9614 C.ar    1  LIG1        0.1435
     17 C          -7.1878    3.3093    0.0574 C.ar    1  LIG1        0.1162
     18 N          -7.3959    2.2935   -0.7787 N.ar    1  LIG1       -0.2363
     19 H          -4.4006    2.2083    1.6035 H       1  LIG1        0.0662
     20 S          -7.0372    0.0296   -2.0228 S.3     1  LIG1       -0.1227
     21 H          -6.4230   -0.9878   -1.4045 H       1  LIG1        0.1086
     22 O          -5.8995    4.2628    1.8846 O.3     1  LIG1       -0.5046
     23 H          -6.6837    4.8159    1.9966 H       1  LIG1        0.2922
     24 C          -9.5362    4.3355    0.0462 C.ar    1  LIG1        0.1042
     25 C          -8.1308    4.4668    0.0161 C.ar    1  LIG1        0.0390
     26 C          -7.6018    5.7537   -0.0273 C.ar    1  LIG1       -0.0062
     27 C          -8.4444    6.8615   -0.0110 C.ar    1  LIG1        0.1435
     28 C          -9.8219    6.6330    0.0419 C.ar    1  LIG1        0.1162
     29 N         -10.3234    5.4004    0.0686 N.ar    1  LIG1       -0.2363
     30 H          -6.5311    5.9178   -0.0715 H       1  LIG1        0.0662
     31 S         -10.4312    2.8035    0.1295 S.3     1  LIG1       -0.1227
     32 H          -9.4641    2.0400   -0.3951 H       1  LIG1        0.1086
     33 O          -7.8850    8.0929   -0.0357 O.3     1  LIG1       -0.5046
     34 H          -8.5528    8.7692    0.1394 H       1  LIG1        0.2922
     35 C         -11.7423    7.9818    1.0516 C.ar    1  LIG1        0.1034
     36 C         -10.7700    7.7882    0.0501 C.ar    1  LIG1        0.0390
     37 C         -10.6785    8.7348   -0.9678 C.ar    1  LIG1       -0.0068
     38 C         -11.5129    9.8482   -0.9471 C.ar    1  LIG1        0.1356
     39 C         -12.4128    9.9674    0.1071 C.ar    1  LIG1        0.0702
     40 N         -12.5227    9.0524    1.0632 N.ar    1  LIG1       -0.2447
     41 H          -9.9757    8.6144   -1.7846 H       1  LIG1        0.0662
     42 H         -13.0752   10.8248    0.1774 H       1  LIG1        0.0867
     43 S         -11.9902    6.8944    2.4384 S.3     1  LIG1       -0.1228
     44 H         -11.6002    5.7770    1.8137 H       1  LIG1        0.1086
     45 O         -11.4026   10.7580   -1.9465 O.3     1  LIG1       -0.5052
     46 H         -12.0612   11.4553   -1.8533 H       1  LIG1        0.2922
@<TRIPOS>BOND
     1    20    21    1
     2    20    13    1
     3    45    46    1
     4    45    38    1
     5    41    37    1
     6    37    38   ar
     7    37    36   ar
     8    38    39   ar
     9    13    18   ar
    10    13    14   ar
    11    18    17   ar
    12    12    11    1
    13    32    31    1
    14    11     4    1
    15     7     3    1
    16     3     4   ar
    17     3     2   ar
    18     4     5   ar
    19     2     8    1
    20     2     1   ar
    21    30    26    1
    22     5    14    1
    23     5     6   ar
    24    10     9    1
    25    33    27    1
    26    33    34    1
    27    26    27   ar
    28    26    25   ar
    29    27    28   ar
    30    14    15   ar
    31    25    24   ar
    32    25    17    1
    33     1     6   ar
    34     1     9    1
    35    28    36    1
    36    28    29   ar
    37    24    29   ar
    38    24    31    1
    39    36    35   ar
    40    17    16   ar
    41    39    42    1
    42    39    40   ar
    43    15    16   ar
    44    15    19    1
    45    16    22    1
    46    35    40   ar
    47    35    43    1
    48    44    43    1
    49    22    23    1
