@<TRIPOS>MOLECULE
mol_data/opt/m06hf/geoms/mol2/6gg.out
 13 13 0 0 0
SMALL
GASTEIGER

@<TRIPOS>ATOM
      1 C          -4.5534   -2.0350    0.0000 C.ar    1  LIG1        0.0940
      2 C          -3.1560   -2.0194   -0.0000 C.ar    1  LIG1       -0.0290
      3 C          -2.5135   -0.7915   -0.0002 C.ar    1  LIG1       -0.0446
      4 C          -3.2716    0.3794   -0.0002 C.ar    1  LIG1        0.0229
      5 C          -4.6597    0.2477   -0.0002 C.ar    1  LIG1        0.0420
      6 N          -5.2804   -0.9270   -0.0000 N.ar    1  LIG1       -0.2479
      7 H          -1.4315   -0.7436   -0.0002 H       1  LIG1        0.0630
      8 H          -2.5867   -2.9380    0.0000 H       1  LIG1        0.0644
      9 H          -5.3006    1.1218   -0.0002 H       1  LIG1        0.0841
     10 S          -5.5230   -3.5267    0.0003 S.3     1  LIG1       -0.1234
     11 H          -4.4863   -4.3717    0.0004 H       1  LIG1        0.1086
     12 S          -2.4399    1.9480   -0.0005 S.3     1  LIG1       -0.1412
     13 H          -3.5487    2.6950   -0.0005 H       1  LIG1        0.1072
@<TRIPOS>BOND
     1    13    12    1
     2    12     4    1
     3     4     5   ar
     4     4     3   ar
     5     9     5    1
     6     7     3    1
     7     5     6   ar
     8     3     2   ar
     9     6     1   ar
    10     2     1   ar
    11     2     8    1
    12     1    10    1
    13    10    11    1
