@<TRIPOS>MOLECULE
mol_data/opt/m06hf/geoms/mol2/6gh.out
 14 14 0 0 0
SMALL
GASTEIGER

@<TRIPOS>ATOM
      1 C          -4.5497   -2.0221   -0.0030 C.ar    1  LIG1        0.0940
      2 C          -3.1542   -2.0129   -0.0185 C.ar    1  LIG1       -0.0283
      3 C          -2.5002   -0.7907   -0.0415 C.ar    1  LIG1       -0.0371
      4 C          -3.2443    0.3916   -0.0559 C.ar    1  LIG1        0.0430
      5 C          -4.6375    0.2612   -0.0401 C.ar    1  LIG1        0.0494
      6 N          -5.2652   -0.9073   -0.0138 N.ar    1  LIG1       -0.2472
      7 H          -1.4176   -0.7506   -0.0448 H       1  LIG1        0.0637
      8 H          -2.5901   -2.9349   -0.0139 H       1  LIG1        0.0644
      9 H          -5.2653    1.1456   -0.0440 H       1  LIG1        0.0849
     10 S          -5.5336   -3.5104    0.0189 S.3     1  LIG1       -0.1234
     11 H          -4.5079   -4.3619    0.1220 H       1  LIG1        0.1086
     12 N          -2.6373    1.6464   -0.0300 N.pl3   1  LIG1       -0.3568
     13 H          -1.7073    1.6802   -0.4225 H       1  LIG1        0.1424
     14 H          -3.2161    2.4070   -0.3575 H       1  LIG1        0.1424
@<TRIPOS>BOND
     1    13    12    1
     2    14    12    1
     3     4     3   ar
     4     4     5   ar
     5     4    12    1
     6     7     3    1
     7     9     5    1
     8     3     2   ar
     9     5     6   ar
    10     2     8    1
    11     2     1   ar
    12     6     1   ar
    13     1    10    1
    14    10    11    1
