@<TRIPOS>MOLECULE
mol_data/opt/m06hf/geoms/mol2/6gh6gh-6gh.out
 38 40 0 0 0
SMALL
GASTEIGER

@<TRIPOS>ATOM
      1 C          -4.0035   -1.8105    1.2125 C.ar    1  LIG1        0.0947
      2 C          -2.8787   -2.0291    0.4120 C.ar    1  LIG1       -0.0283
      3 C          -2.6009   -1.1136   -0.5866 C.ar    1  LIG1       -0.0365
      4 C          -3.4203    0.0073   -0.7687 C.ar    1  LIG1        0.0510
      5 C          -4.4995    0.1547    0.1189 C.ar    1  LIG1        0.0954
      6 N          -4.7711   -0.7458    1.0615 N.ar    1  LIG1       -0.2388
      7 H          -1.7471   -1.2609   -1.2373 H       1  LIG1        0.0637
      8 H          -2.2461   -2.8934    0.5583 H       1  LIG1        0.0644
      9 S          -4.5398   -2.9035    2.5118 S.3     1  LIG1       -0.1234
     10 H          -3.6679   -3.8824    2.2459 H       1  LIG1        0.1086
     11 N          -3.1474    0.9468   -1.7603 N.pl3   1  LIG1       -0.3563
     12 H          -2.6010    0.5912   -2.5327 H       1  LIG1        0.1424
     13 H          -3.9543    1.4741   -2.0710 H       1  LIG1        0.1424
     14 C          -6.7926    1.2654   -0.0874 C.ar    1  LIG1        0.1040
     15 C          -5.3941    1.3494    0.0361 C.ar    1  LIG1        0.0356
     16 C          -4.8218    2.6170    0.0666 C.ar    1  LIG1       -0.0272
     17 C          -5.6093    3.7652   -0.0425 C.ar    1  LIG1        0.0517
     18 C          -6.9925    3.5672   -0.1874 C.ar    1  LIG1        0.0954
     19 N          -7.5368    2.3546   -0.2052 N.ar    1  LIG1       -0.2381
     20 H          -3.7448    2.7071    0.1612 H       1  LIG1        0.0644
     21 S          -7.7270   -0.2472   -0.1847 S.3     1  LIG1       -0.1227
     22 H          -6.8336   -1.0071    0.4617 H       1  LIG1        0.1086
     23 N          -5.0533    5.0392    0.0202 N.pl3   1  LIG1       -0.3563
     24 H          -4.0688    5.0832   -0.2025 H       1  LIG1        0.1424
     25 H          -5.5959    5.7558   -0.4450 H       1  LIG1        0.1424
     26 C          -8.7659    4.9267   -1.4119 C.ar    1  LIG1        0.1033
     27 C          -7.9135    4.7384   -0.3120 C.ar    1  LIG1        0.0355
     28 C          -7.9234    5.6945    0.7007 C.ar    1  LIG1       -0.0278
     29 C          -8.7458    6.8173    0.5982 C.ar    1  LIG1        0.0436
     30 C          -9.5285    6.9162   -0.5572 C.ar    1  LIG1        0.0495
     31 N          -9.5375    6.0004   -1.5155 N.ar    1  LIG1       -0.2465
     32 H          -7.2826    5.5591    1.5653 H       1  LIG1        0.0644
     33 H         -10.1828    7.7699   -0.6995 H       1  LIG1        0.0849
     34 S          -8.8492    3.8220   -2.8113 S.3     1  LIG1       -0.1228
     35 H          -8.6228    2.7011   -2.1165 H       1  LIG1        0.1086
     36 N          -8.8268    7.7681    1.6101 N.pl3   1  LIG1       -0.3568
     37 H          -8.0248    7.8250    2.2207 H       1  LIG1        0.1424
     38 H          -9.1662    8.6759    1.3263 H       1  LIG1        0.1424
@<TRIPOS>BOND
     1    34    35    1
     2    34    26    1
     3    12    11    1
     4    13    11    1
     5    11     4    1
     6    31    26   ar
     7    31    30   ar
     8    26    27   ar
     9     7     3    1
    10     4     3   ar
    11     4     5   ar
    12    33    30    1
    13     3     2   ar
    14    30    29   ar
    15    25    23    1
    16    27    18    1
    17    27    28   ar
    18    19    18   ar
    19    19    14   ar
    20    24    23    1
    21    18    17   ar
    22    21    14    1
    23    21    22    1
    24    14    15   ar
    25    17    23    1
    26    17    16   ar
    27    15    16   ar
    28    15     5    1
    29    16    20    1
    30     5     6   ar
    31     2     8    1
    32     2     1   ar
    33    29    28   ar
    34    29    36    1
    35    28    32    1
    36     6     1   ar
    37     1     9    1
    38    38    36    1
    39    36    37    1
    40    10     9    1
