@<TRIPOS>MOLECULE
mol_data/opt/m06hf/geoms/mol2/6gh6gh.out
 26 27 0 0 0
SMALL
GASTEIGER

@<TRIPOS>ATOM
      1 C          -4.3605   -1.9727    0.6526 C.ar    1  LIG1        0.0947
      2 C          -3.0238   -2.0241    0.2505 C.ar    1  LIG1       -0.0283
      3 C          -2.4747   -0.8969   -0.3339 C.ar    1  LIG1       -0.0365
      4 C          -3.2453    0.2595   -0.5011 C.ar    1  LIG1        0.0510
      5 C          -4.5685    0.2155   -0.0313 C.ar    1  LIG1        0.0954
      6 N          -5.0909   -0.8803    0.5154 N.ar    1  LIG1       -0.2388
      7 H          -1.4443   -0.9048   -0.6684 H       1  LIG1        0.0637
      8 H          -2.4331   -2.9202    0.3804 H       1  LIG1        0.0644
      9 S          -5.2447   -3.3393    1.3781 S.3     1  LIG1       -0.1234
     10 H          -4.2547   -4.2313    1.2665 H       1  LIG1        0.1086
     11 N          -2.7057    1.4092   -1.0749 N.pl3   1  LIG1       -0.3563
     12 H          -1.9264    1.2369   -1.6953 H       1  LIG1        0.1424
     13 H          -3.3924    2.0303   -1.4844 H       1  LIG1        0.1424
     14 C          -6.6999    1.4132   -0.7656 C.ar    1  LIG1        0.1033
     15 C          -5.4480    1.4216   -0.1272 C.ar    1  LIG1        0.0355
     16 C          -5.0082    2.6153    0.4406 C.ar    1  LIG1       -0.0278
     17 C          -5.7853    3.7700    0.3456 C.ar    1  LIG1        0.0436
     18 C          -6.9970    3.6519   -0.3431 C.ar    1  LIG1        0.0495
     19 N          -7.4313    2.5154   -0.8680 N.ar    1  LIG1       -0.2465
     20 H          -4.0518    2.6383    0.9519 H       1  LIG1        0.0644
     21 H          -7.6430    4.5154   -0.4603 H       1  LIG1        0.0849
     22 S          -7.4143   -0.0076   -1.5729 S.3     1  LIG1       -0.1228
     23 H          -6.8743   -0.9217   -0.7576 H       1  LIG1        0.1086
     24 N          -5.4072    4.9681    0.9441 N.pl3   1  LIG1       -0.3568
     25 H          -4.4178    5.0739    1.1161 H       1  LIG1        0.1424
     26 H          -5.8251    5.7987    0.5499 H       1  LIG1        0.1424
@<TRIPOS>BOND
     1    12    11    1
     2    22    14    1
     3    22    23    1
     4    13    11    1
     5    11     4    1
     6    19    14   ar
     7    19    18   ar
     8    14    15   ar
     9     7     3    1
    10     4     3   ar
    11     4     5   ar
    12    21    18    1
    13    18    17   ar
    14     3     2   ar
    15    15     5    1
    16    15    16   ar
    17     5     6   ar
    18     2     8    1
    19     2     1   ar
    20    17    16   ar
    21    17    24    1
    22    16    20    1
    23     6     1   ar
    24    26    24    1
    25     1     9    1
    26    24    25    1
    27    10     9    1
