@<TRIPOS>MOLECULE
mol_data/opt/m06hf/geoms/mol2/6gh6gh-6gh-.out
 38 40 0 0 0
SMALL
GASTEIGER

@<TRIPOS>ATOM
      1 C          -3.9942   -1.8088    1.2045 C.ar    1  LIG1        0.0947
      2 C          -2.8745   -2.0277    0.3969 C.ar    1  LIG1       -0.0283
      3 C          -2.6033   -1.1128   -0.6040 C.ar    1  LIG1       -0.0365
      4 C          -3.4241    0.0077   -0.7816 C.ar    1  LIG1        0.0510
      5 C          -4.4977    0.1555    0.1128 C.ar    1  LIG1        0.0954
      6 N          -4.7630   -0.7444    1.0577 N.ar    1  LIG1       -0.2388
      7 H          -1.7537   -1.2604   -1.2601 H       1  LIG1        0.0637
      8 H          -2.2408   -2.8919    0.5398 H       1  LIG1        0.0644
      9 S          -4.5219   -2.9012    2.5079 S.3     1  LIG1       -0.1234
     10 H          -3.6515   -3.8800    2.2370 H       1  LIG1        0.1086
     11 N          -3.1578    0.9466   -1.7756 N.pl3   1  LIG1       -0.3563
     12 H          -2.6163    0.5906   -2.5512 H       1  LIG1        0.1424
     13 H          -3.9667    1.4736   -2.0815 H       1  LIG1        0.1424
     14 C          -6.7922    1.2656   -0.0797 C.ar    1  LIG1        0.1040
     15 C          -5.3931    1.3499    0.0349 C.ar    1  LIG1        0.0356
     16 C          -4.8208    2.6177    0.0609 C.ar    1  LIG1       -0.0272
     17 C          -5.6093    3.7657   -0.0439 C.ar    1  LIG1        0.0517
     18 C          -6.9933    3.5672   -0.1799 C.ar    1  LIG1        0.0954
     19 N          -7.5374    2.3545   -0.1934 N.ar    1  LIG1       -0.2381
     20 H          -3.7433    2.7081    0.1486 H       1  LIG1        0.0644
     21 S          -7.7269   -0.2473   -0.1700 S.3     1  LIG1       -0.1227
     22 H          -6.8293   -1.0066    0.4711 H       1  LIG1        0.1086
     23 N          -5.0532    5.0398    0.0144 N.pl3   1  LIG1       -0.3563
     24 H          -4.0701    5.0839   -0.2146 H       1  LIG1        0.1424
     25 H          -5.5989    5.7560   -0.4478 H       1  LIG1        0.1424
     26 C          -8.7747    4.9255   -1.3940 C.ar    1  LIG1        0.1033
     27 C          -7.9153    4.7381   -0.2994 C.ar    1  LIG1        0.0355
     28 C          -7.9191    5.6950    0.7127 C.ar    1  LIG1       -0.0278
     29 C          -8.7424    6.8175    0.6146 C.ar    1  LIG1        0.0436
     30 C          -9.5323    6.9155   -0.5359 C.ar    1  LIG1        0.0495
     31 N          -9.5472    5.9990   -1.4935 N.ar    1  LIG1       -0.2465
     32 H          -7.2728    5.5602    1.5733 H       1  LIG1        0.0644
     33 H         -10.1877    7.7689   -0.6746 H       1  LIG1        0.0849
     34 S          -8.8667    3.8199   -2.7921 S.3     1  LIG1       -0.1228
     35 H          -8.6356    2.6995   -2.0981 H       1  LIG1        0.1086
     36 N          -8.8172    7.7689    1.6264 N.pl3   1  LIG1       -0.3568
     37 H          -8.0113    7.8264    2.2318 H       1  LIG1        0.1424
     38 H          -9.1586    8.6765    1.3442 H       1  LIG1        0.1424
@<TRIPOS>BOND
     1    34    35    1
     2    34    26    1
     3    12    11    1
     4    13    11    1
     5    11     4    1
     6    31    26   ar
     7    31    30   ar
     8    26    27   ar
     9     7     3    1
    10     4     3   ar
    11     4     5   ar
    12    33    30    1
    13     3     2   ar
    14    30    29   ar
    15    25    23    1
    16    27    18    1
    17    27    28   ar
    18    24    23    1
    19    19    18   ar
    20    19    14   ar
    21    18    17   ar
    22    21    14    1
    23    21    22    1
    24    14    15   ar
    25    17    23    1
    26    17    16   ar
    27    15    16   ar
    28    15     5    1
    29    16    20    1
    30     5     6   ar
    31     2     8    1
    32     2     1   ar
    33    29    28   ar
    34    29    36    1
    35    28    32    1
    36     6     1   ar
    37     1     9    1
    38    38    36    1
    39    36    37    1
    40    10     9    1
