@<TRIPOS>MOLECULE
mol_data/opt/m06hf/geoms/mol2/6gh6gh6gh-6gh-.out
 50 53 0 0 0
SMALL
GASTEIGER

@<TRIPOS>ATOM
      1 C          -3.4743   -1.5266    1.5362 C.ar    1  LIG1        0.0947
      2 C          -2.6679   -1.9894    0.4930 C.ar    1  LIG1       -0.0283
      3 C          -2.7681   -1.3646   -0.7370 C.ar    1  LIG1       -0.0365
      4 C          -3.6489   -0.2910   -0.9164 C.ar    1  LIG1        0.0510
      5 C          -4.3896    0.1150    0.2061 C.ar    1  LIG1        0.0954
      6 N          -4.2985   -0.5056    1.3806 N.ar    1  LIG1       -0.2388
      7 H          -2.1672   -1.7064   -1.5710 H       1  LIG1        0.0637
      8 H          -1.9906   -2.8200    0.6347 H       1  LIG1        0.0644
      9 S          -3.5136   -2.2333    3.1698 S.3     1  LIG1       -0.1234
     10 H          -2.5973   -3.1800    2.9424 H       1  LIG1        0.1086
     11 N          -3.7533    0.3629   -2.1420 N.pl3   1  LIG1       -0.3563
     12 H          -3.4610   -0.1884   -2.9371 H       1  LIG1        0.1424
     13 H          -4.6434    0.8200   -2.2973 H       1  LIG1        0.1424
     14 C          -6.6698    1.2315    0.5012 C.ar    1  LIG1        0.1040
     15 C          -5.3146    1.2869    0.1269 C.ar    1  LIG1        0.0356
     16 C          -4.8237    2.4980   -0.3473 C.ar    1  LIG1       -0.0272
     17 C          -5.6520    3.6176   -0.4622 C.ar    1  LIG1        0.0517
     18 C          -6.9901    3.4514   -0.0687 C.ar    1  LIG1        0.0954
     19 N          -7.4546    2.2915    0.3865 N.ar    1  LIG1       -0.2381
     20 H          -3.7828    2.5640   -0.6462 H       1  LIG1        0.0644
     21 S          -7.5187   -0.2250    1.0706 S.3     1  LIG1       -0.1227
     22 H          -6.4416   -0.8172    1.5966 H       1  LIG1        0.1086
     23 N          -5.1601    4.8392   -0.9136 N.pl3   1  LIG1       -0.3563
     24 H          -4.3099    4.7754   -1.4562 H       1  LIG1        0.1424
     25 H          -5.8538    5.4385   -1.3433 H       1  LIG1        0.1424
     26 C          -9.1753    4.5422   -0.8166 C.ar    1  LIG1        0.1040
     27 C          -7.9486    4.5967   -0.1319 C.ar    1  LIG1        0.0356
     28 C          -7.6121    5.7894    0.4985 C.ar    1  LIG1       -0.0272
     29 C          -8.4563    6.9008    0.4329 C.ar    1  LIG1        0.0517
     30 C          -9.6452    6.7464   -0.2987 C.ar    1  LIG1        0.0954
     31 N          -9.9686    5.5996   -0.8891 N.ar    1  LIG1       -0.2381
     32 H          -6.6713    5.8568    1.0349 H       1  LIG1        0.0644
     33 S          -9.7708    3.1328   -1.7280 S.3     1  LIG1       -0.1227
     34 H          -9.1539    2.2139   -0.9773 H       1  LIG1        0.1086
     35 N          -8.1423    8.0882    1.0862 N.pl3   1  LIG1       -0.3563
     36 H          -7.1618    8.2077    1.2991 H       1  LIG1        0.1424
     37 H          -8.5608    8.9156    0.6806 H       1  LIG1        0.1424
     38 C         -11.0288    8.3984   -1.6624 C.ar    1  LIG1        0.1033
     39 C         -10.6082    7.8837   -0.4256 C.ar    1  LIG1        0.0355
     40 C         -11.1064    8.4714    0.7350 C.ar    1  LIG1       -0.0278
     41 C         -11.9749    9.5607    0.6551 C.ar    1  LIG1        0.0436
     42 C         -12.2935   10.0132   -0.6301 C.ar    1  LIG1        0.0495
     43 N         -11.8406    9.4450   -1.7382 N.ar    1  LIG1       -0.2465
     44 H         -10.8064    8.0780    1.7007 H       1  LIG1        0.0644
     45 H         -12.9543   10.8641   -0.7587 H       1  LIG1        0.0849
     46 S         -10.4795    7.7819   -3.2440 S.3     1  LIG1       -0.1228
     47 H         -10.3493    6.5086   -2.8533 H       1  LIG1        0.1086
     48 N         -12.5385   10.1420    1.7853 N.pl3   1  LIG1       -0.3568
     49 H         -12.0430    9.9887    2.6512 H       1  LIG1        0.1424
     50 H         -12.8532   11.0950    1.6757 H       1  LIG1        0.1424
@<TRIPOS>BOND
     1    46    47    1
     2    46    38    1
     3    12    11    1
     4    13    11    1
     5    11     4    1
     6    43    38   ar
     7    43    42   ar
     8    33    34    1
     9    33    26    1
    10    38    39   ar
    11     7     3    1
    12    24    23    1
    13    25    23    1
    14     4     3   ar
    15     4     5   ar
    16    23    17    1
    17    31    26   ar
    18    31    30   ar
    19    26    27   ar
    20    45    42    1
    21     3     2   ar
    22    20    16    1
    23    42    41   ar
    24    17    16   ar
    25    17    18   ar
    26    39    30    1
    27    39    40   ar
    28    16    15   ar
    29    30    29   ar
    30    27    18    1
    31    27    28   ar
    32    18    19   ar
    33    15     5    1
    34    15    14   ar
    35     5     6   ar
    36    19    14   ar
    37    29    28   ar
    38    29    35    1
    39     2     8    1
    40     2     1   ar
    41    28    32    1
    42    14    21    1
    43    41    40   ar
    44    41    48    1
    45    37    35    1
    46    40    44    1
    47    21    22    1
    48    35    36    1
    49     6     1   ar
    50     1     9    1
    51    50    48    1
    52    48    49    1
    53    10     9    1
