@<TRIPOS>MOLECULE
mol_data/opt/m06hf/geoms/mol2/6gh6gh6gh-6gh.out
 50 53 0 0 0
SMALL
GASTEIGER

@<TRIPOS>ATOM
      1 C          -3.4765   -1.5254    1.5449 C.ar    1  LIG1        0.0947
      2 C          -2.6690   -1.9894    0.5030 C.ar    1  LIG1       -0.0283
      3 C          -2.7680   -1.3660   -0.7277 C.ar    1  LIG1       -0.0365
      4 C          -3.6486   -0.2925   -0.9092 C.ar    1  LIG1        0.0510
      5 C          -4.3903    0.1148    0.2122 C.ar    1  LIG1        0.0954
      6 N          -4.3003   -0.5045    1.3874 N.ar    1  LIG1       -0.2388
      7 H          -2.1664   -1.7087   -1.5608 H       1  LIG1        0.0637
      8 H          -1.9921   -2.8200    0.6463 H       1  LIG1        0.0644
      9 S          -3.5174   -2.2303    3.1792 S.3     1  LIG1       -0.1234
     10 H          -2.6009   -3.1774    2.9538 H       1  LIG1        0.1086
     11 N          -3.7517    0.3602   -2.1356 N.pl3   1  LIG1       -0.3563
     12 H          -3.4587   -0.1921   -2.9298 H       1  LIG1        0.1424
     13 H          -4.6416    0.8171   -2.2923 H       1  LIG1        0.1424
     14 C          -6.6706    1.2319    0.5039 C.ar    1  LIG1        0.1040
     15 C          -5.3150    1.2868    0.1307 C.ar    1  LIG1        0.0356
     16 C          -4.8236    2.4973   -0.3443 C.ar    1  LIG1       -0.0272
     17 C          -5.6517    3.6168   -0.4613 C.ar    1  LIG1        0.0517
     18 C          -6.9902    3.4511   -0.0689 C.ar    1  LIG1        0.0954
     19 N          -7.4552    2.2917    0.3872 N.ar    1  LIG1       -0.2381
     20 H          -3.7825    2.5628   -0.6424 H       1  LIG1        0.0644
     21 S          -7.5202   -0.2239    1.0741 S.3     1  LIG1       -0.1227
     22 H          -6.4436   -0.8156    1.6019 H       1  LIG1        0.1086
     23 N          -5.1593    4.8378   -0.9136 N.pl3   1  LIG1       -0.3563
     24 H          -4.3086    4.7734   -1.4554 H       1  LIG1        0.1424
     25 H          -5.8526    5.4366   -1.3447 H       1  LIG1        0.1424
     26 C          -9.1745    4.5413   -0.8203 C.ar    1  LIG1        0.1040
     27 C          -7.9485    4.5964   -0.1343 C.ar    1  LIG1        0.0356
     28 C          -7.6126    5.7898    0.4952 C.ar    1  LIG1       -0.0272
     29 C          -8.4566    6.9012    0.4275 C.ar    1  LIG1        0.0517
     30 C          -9.6448    6.7461   -0.3052 C.ar    1  LIG1        0.0954
     31 N          -9.9677    5.5987   -0.8948 N.ar    1  LIG1       -0.2381
     32 H          -6.6724    5.8576    1.0326 H       1  LIG1        0.0644
     33 S          -9.7690    3.1310   -1.7310 S.3     1  LIG1       -0.1227
     34 H          -9.1532    2.2128   -0.9785 H       1  LIG1        0.1086
     35 N          -8.1433    8.0892    1.0799 N.pl3   1  LIG1       -0.3563
     36 H          -7.1630    8.2088    1.2938 H       1  LIG1        0.1424
     37 H          -8.5612    8.9162    0.6730 H       1  LIG1        0.1424
     38 C         -11.0266    8.3969   -1.6722 C.ar    1  LIG1        0.1033
     39 C         -10.6075    7.8834   -0.4344 C.ar    1  LIG1        0.0355
     40 C         -11.1070    8.4722    0.7251 C.ar    1  LIG1       -0.0278
     41 C         -11.9753    9.5615    0.6430 C.ar    1  LIG1        0.0436
     42 C         -12.2923   10.0128   -0.6431 C.ar    1  LIG1        0.0495
     43 N         -11.8382    9.4434   -1.7500 N.ar    1  LIG1       -0.2465
     44 H         -10.8082    8.0798    1.6915 H       1  LIG1        0.0644
     45 H         -12.9530   10.8636   -0.7733 H       1  LIG1        0.0849
     46 S         -10.4755    7.7787   -3.2525 S.3     1  LIG1       -0.1228
     47 H         -10.3458    6.5057   -2.8603 H       1  LIG1        0.1086
     48 N         -12.5402   10.1440    1.7720 N.pl3   1  LIG1       -0.3568
     49 H         -12.0457    9.9915    2.6386 H       1  LIG1        0.1424
     50 H         -12.8546   11.0970    1.6611 H       1  LIG1        0.1424
@<TRIPOS>BOND
     1    46    47    1
     2    46    38    1
     3    12    11    1
     4    13    11    1
     5    11     4    1
     6    43    38   ar
     7    43    42   ar
     8    33    34    1
     9    33    26    1
    10    38    39   ar
    11     7     3    1
    12    24    23    1
    13    25    23    1
    14    23    17    1
    15     4     3   ar
    16     4     5   ar
    17    31    26   ar
    18    31    30   ar
    19    26    27   ar
    20    45    42    1
    21     3     2   ar
    22    42    41   ar
    23    20    16    1
    24    17    16   ar
    25    17    18   ar
    26    39    30    1
    27    39    40   ar
    28    16    15   ar
    29    30    29   ar
    30    27    18    1
    31    27    28   ar
    32    18    19   ar
    33    15     5    1
    34    15    14   ar
    35     5     6   ar
    36    19    14   ar
    37    29    28   ar
    38    29    35    1
    39    28    32    1
    40     2     8    1
    41     2     1   ar
    42    14    21    1
    43    41    40   ar
    44    41    48    1
    45    37    35    1
    46    40    44    1
    47    21    22    1
    48    35    36    1
    49     6     1   ar
    50     1     9    1
    51    50    48    1
    52    48    49    1
    53    10     9    1
