@<TRIPOS>MOLECULE
mol_data/opt/m06hf/geoms/mol2/6gh6gh-6gh6gh.out
 50 53 0 0 0
SMALL
GASTEIGER

@<TRIPOS>ATOM
      1 C          -3.5014   -1.5401    1.5499 C.ar    1  LIG1        0.0947
      2 C          -2.6785   -1.9951    0.5161 C.ar    1  LIG1       -0.0283
      3 C          -2.7590   -1.3609   -0.7104 C.ar    1  LIG1       -0.0365
      4 C          -3.6367   -0.2858   -0.8957 C.ar    1  LIG1        0.0510
      5 C          -4.3951    0.1119    0.2180 C.ar    1  LIG1        0.0954
      6 N          -4.3228   -0.5178    1.3890 N.ar    1  LIG1       -0.2388
      7 H          -2.1449   -1.6964   -1.5374 H       1  LIG1        0.0637
      8 H          -2.0037   -2.8270    0.6623 H       1  LIG1        0.0644
      9 S          -3.5668   -2.2593    3.1771 S.3     1  LIG1       -0.1234
     10 H          -2.6472   -3.2046    2.9571 H       1  LIG1        0.1086
     11 N          -3.7214    0.3776   -2.1176 N.pl3   1  LIG1       -0.3563
     12 H          -3.4165   -0.1676   -2.9122 H       1  LIG1        0.1424
     13 H          -4.6088    0.8361   -2.2837 H       1  LIG1        0.1424
     14 C          -6.6796    1.2267    0.4853 C.ar    1  LIG1        0.1040
     15 C          -5.3185    1.2846    0.1330 C.ar    1  LIG1        0.0356
     16 C          -4.8200    2.4992   -0.3239 C.ar    1  LIG1       -0.0272
     17 C          -5.6461    3.6199   -0.4434 C.ar    1  LIG1        0.0517
     18 C          -6.9903    3.4510   -0.0725 C.ar    1  LIG1        0.0954
     19 N          -7.4622    2.2877    0.3662 N.ar    1  LIG1       -0.2381
     20 H          -3.7744    2.5671   -0.6057 H       1  LIG1        0.0644
     21 S          -7.5376   -0.2338    1.0300 S.3     1  LIG1       -0.1227
     22 H          -6.4691   -0.8304    1.5685 H       1  LIG1        0.1086
     23 N          -5.1469    4.8447   -0.8775 N.pl3   1  LIG1       -0.3563
     24 H          -4.2882    4.7849   -1.4070 H       1  LIG1        0.1424
     25 H          -5.8336    5.4475   -1.3136 H       1  LIG1        0.1424
     26 C          -9.1632    4.5481   -0.8468 C.ar    1  LIG1        0.1040
     27 C          -7.9475    4.5970   -0.1422 C.ar    1  LIG1        0.0356
     28 C          -7.6210    5.7848    0.5026 C.ar    1  LIG1       -0.0272
     29 C          -8.4638    6.8969    0.4321 C.ar    1  LIG1        0.0517
     30 C          -9.6410    6.7484   -0.3194 C.ar    1  LIG1        0.0954
     31 N          -9.9551    5.6062   -0.9237 N.ar    1  LIG1       -0.2381
     32 H          -6.6888    5.8477    1.0544 H       1  LIG1        0.0644
     33 S          -9.7443    3.1459   -1.7783 S.3     1  LIG1       -0.1227
     34 H          -9.1396    2.2211   -1.0250 H       1  LIG1        0.1086
     35 N          -8.1600    8.0791    1.0994 N.pl3   1  LIG1       -0.3563
     36 H          -7.1831    8.1967    1.3288 H       1  LIG1        0.1424
     37 H          -8.5719    8.9097    0.6936 H       1  LIG1        0.1424
     38 C         -11.0024    8.4112   -1.6923 C.ar    1  LIG1        0.1033
     39 C         -10.6016    7.8870   -0.4530 C.ar    1  LIG1        0.0355
     40 C         -11.1182    8.4658    0.7041 C.ar    1  LIG1       -0.0278
     41 C         -11.9851    9.5560    0.6187 C.ar    1  LIG1        0.0436
     42 C         -12.2831   10.0184   -0.6680 C.ar    1  LIG1        0.0495
     43 N         -11.8127    9.4586   -1.7730 N.ar    1  LIG1       -0.2465
     44 H         -10.8336    8.0650    1.6713 H       1  LIG1        0.0644
     45 H         -12.9416   10.8704   -0.8005 H       1  LIG1        0.0849
     46 S         -10.4282    7.8067   -3.2697 S.3     1  LIG1       -0.1228
     47 H         -10.3043    6.5303   -2.8867 H       1  LIG1        0.1086
     48 N         -12.5665   10.1288    1.7442 N.pl3   1  LIG1       -0.3568
     49 H         -12.0848    9.9687    2.6167 H       1  LIG1        0.1424
     50 H         -12.8792   11.0827    1.6369 H       1  LIG1        0.1424
@<TRIPOS>BOND
     1    46    47    1
     2    46    38    1
     3    12    11    1
     4    13    11    1
     5    11     4    1
     6    33    34    1
     7    33    26    1
     8    43    38   ar
     9    43    42   ar
    10    38    39   ar
    11     7     3    1
    12    24    23    1
    13    25    23    1
    14    31    26   ar
    15    31    30   ar
    16     4     3   ar
    17     4     5   ar
    18    23    17    1
    19    26    27   ar
    20    45    42    1
    21     3     2   ar
    22    42    41   ar
    23    20    16    1
    24    39    30    1
    25    39    40   ar
    26    17    16   ar
    27    17    18   ar
    28    16    15   ar
    29    30    29   ar
    30    27    18    1
    31    27    28   ar
    32    18    19   ar
    33    15     5    1
    34    15    14   ar
    35     5     6   ar
    36    19    14   ar
    37    29    28   ar
    38    29    35    1
    39    14    21    1
    40    28    32    1
    41     2     8    1
    42     2     1   ar
    43    41    40   ar
    44    41    48    1
    45    37    35    1
    46    40    44    1
    47    21    22    1
    48    35    36    1
    49     6     1   ar
    50     1     9    1
    51    50    48    1
    52    48    49    1
    53    10     9    1
