@<TRIPOS>MOLECULE
mol_data/opt/m06hf/geoms/mol2/6gh6gh-6gh-6gh.out
 50 53 0 0 0
SMALL
GASTEIGER

@<TRIPOS>ATOM
      1 C          -3.4871   -1.5314    1.5453 C.ar    1  LIG1        0.0947
      2 C          -2.6709   -1.9899    0.5078 C.ar    1  LIG1       -0.0283
      3 C          -2.7601   -1.3605   -0.7206 C.ar    1  LIG1       -0.0365
      4 C          -3.6397   -0.2866   -0.9040 C.ar    1  LIG1        0.0510
      5 C          -4.3908    0.1149    0.2132 C.ar    1  LIG1        0.0954
      6 N          -4.3101   -0.5101    1.3861 N.ar    1  LIG1       -0.2388
      7 H          -2.1515   -1.6989   -1.5505 H       1  LIG1        0.0637
      8 H          -1.9947   -2.8209    0.6525 H       1  LIG1        0.0644
      9 S          -3.5410   -2.2443    3.1758 S.3     1  LIG1       -0.1234
     10 H          -2.6223   -3.1899    2.9532 H       1  LIG1        0.1086
     11 N          -3.7332    0.3720   -2.1280 N.pl3   1  LIG1       -0.3563
     12 H          -3.4334   -0.1762   -2.9225 H       1  LIG1        0.1424
     13 H          -4.6220    0.8293   -2.2897 H       1  LIG1        0.1424
     14 C          -6.6740    1.2295    0.4918 C.ar    1  LIG1        0.1040
     15 C          -5.3154    1.2868    0.1300 C.ar    1  LIG1        0.0356
     16 C          -4.8207    2.4999   -0.3351 C.ar    1  LIG1       -0.0272
     17 C          -5.6483    3.6196   -0.4533 C.ar    1  LIG1        0.0517
     18 C          -6.9898    3.4514   -0.0726 C.ar    1  LIG1        0.0954
     19 N          -7.4581    2.2897    0.3739 N.ar    1  LIG1       -0.2381
     20 H          -3.7771    2.5673   -0.6243 H       1  LIG1        0.0644
     21 S          -7.5275   -0.2294    1.0479 S.3     1  LIG1       -0.1227
     22 H          -6.4549   -0.8232    1.5814 H       1  LIG1        0.1086
     23 N          -5.1528    4.8431   -0.8955 N.pl3   1  LIG1       -0.3563
     24 H          -4.2976    4.7817   -1.4306 H       1  LIG1        0.1424
     25 H          -5.8428    5.4437   -1.3293 H       1  LIG1        0.1424
     26 C          -9.1686    4.5443   -0.8362 C.ar    1  LIG1        0.1040
     27 C          -7.9481    4.5967   -0.1401 C.ar    1  LIG1        0.0356
     28 C          -7.6179    5.7871    0.4978 C.ar    1  LIG1       -0.0272
     29 C          -8.4618    6.8985    0.4287 C.ar    1  LIG1        0.0517
     30 C          -9.6440    6.7464   -0.3141 C.ar    1  LIG1        0.0954
     31 N          -9.9616    5.6017   -0.9118 N.ar    1  LIG1       -0.2381
     32 H          -6.6820    5.8527    1.0430 H       1  LIG1        0.0644
     33 S          -9.7552    3.1382   -1.7583 S.3     1  LIG1       -0.1227
     34 H          -9.1449    2.2167   -1.0055 H       1  LIG1        0.1086
     35 N          -8.1542    8.0835    1.0894 N.pl3   1  LIG1       -0.3563
     36 H          -7.1757    8.2025    1.3117 H       1  LIG1        0.1424
     37 H          -8.5693    8.9122    0.6832 H       1  LIG1        0.1424
     38 C         -11.0157    8.4031   -1.6841 C.ar    1  LIG1        0.1033
     39 C         -10.6062    7.8839   -0.4455 C.ar    1  LIG1        0.0355
     40 C         -11.1152    8.4670    0.7127 C.ar    1  LIG1       -0.0278
     41 C         -11.9833    9.5563    0.6290 C.ar    1  LIG1        0.0436
     42 C         -12.2903   10.0136   -0.6573 C.ar    1  LIG1        0.0495
     43 N         -11.8272    9.4497   -1.7633 N.ar    1  LIG1       -0.2465
     44 H         -10.8237    8.0701    1.6796 H       1  LIG1        0.0644
     45 H         -12.9503   10.8647   -0.7887 H       1  LIG1        0.0849
     46 S         -10.4520    7.7927   -3.2630 S.3     1  LIG1       -0.1228
     47 H         -10.3248    6.5180   -2.8759 H       1  LIG1        0.1086
     48 N         -12.5573   10.1332    1.7563 N.pl3   1  LIG1       -0.3568
     49 H         -12.0696    9.9768    2.6261 H       1  LIG1        0.1424
     50 H         -12.8713   11.0866    1.6474 H       1  LIG1        0.1424
@<TRIPOS>BOND
     1    46    47    1
     2    46    38    1
     3    12    11    1
     4    13    11    1
     5    11     4    1
     6    43    38   ar
     7    43    42   ar
     8    33    34    1
     9    33    26    1
    10    38    39   ar
    11     7     3    1
    12    24    23    1
    13    25    23    1
    14    31    26   ar
    15    31    30   ar
    16     4     3   ar
    17     4     5   ar
    18    23    17    1
    19    26    27   ar
    20    45    42    1
    21     3     2   ar
    22    42    41   ar
    23    20    16    1
    24    17    16   ar
    25    17    18   ar
    26    39    30    1
    27    39    40   ar
    28    16    15   ar
    29    30    29   ar
    30    27    18    1
    31    27    28   ar
    32    18    19   ar
    33    15     5    1
    34    15    14   ar
    35     5     6   ar
    36    19    14   ar
    37    29    28   ar
    38    29    35    1
    39    14    21    1
    40    28    32    1
    41     2     8    1
    42     2     1   ar
    43    41    40   ar
    44    41    48    1
    45    37    35    1
    46    40    44    1
    47    21    22    1
    48    35    36    1
    49     6     1   ar
    50     1     9    1
    51    50    48    1
    52    48    49    1
    53    10     9    1
