@<TRIPOS>MOLECULE
mol_data/opt/m06hf/geoms/mol2/6gh6gh6gh6gh-.out
 50 53 0 0 0
SMALL
GASTEIGER

@<TRIPOS>ATOM
      1 C          -3.4750   -1.5274    1.5361 C.ar    1  LIG1        0.0947
      2 C          -2.6694   -1.9908    0.4925 C.ar    1  LIG1       -0.0283
      3 C          -2.7703   -1.3665   -0.7376 C.ar    1  LIG1       -0.0365
      4 C          -3.6510   -0.2928   -0.9169 C.ar    1  LIG1        0.0510
      5 C          -4.3907    0.1139    0.2060 C.ar    1  LIG1        0.0954
      6 N          -4.2990   -0.5062    1.3806 N.ar    1  LIG1       -0.2388
      7 H          -2.1701   -1.7088   -1.5720 H       1  LIG1        0.0637
      8 H          -1.9923   -2.8216    0.6341 H       1  LIG1        0.0644
      9 S          -3.5134   -2.2333    3.1700 S.3     1  LIG1       -0.1234
     10 H          -2.5975   -3.1805    2.9424 H       1  LIG1        0.1086
     11 N          -3.7560    0.3607   -2.1427 N.pl3   1  LIG1       -0.3563
     12 H          -3.4644   -0.1911   -2.9378 H       1  LIG1        0.1424
     13 H          -4.6461    0.8179   -2.2976 H       1  LIG1        0.1424
     14 C          -6.6704    1.2313    0.5022 C.ar    1  LIG1        0.1040
     15 C          -5.3154    1.2861    0.1268 C.ar    1  LIG1        0.0356
     16 C          -4.8245    2.4968   -0.3482 C.ar    1  LIG1       -0.0272
     17 C          -5.6525    3.6167   -0.4630 C.ar    1  LIG1        0.0517
     18 C          -6.9904    3.4510   -0.0684 C.ar    1  LIG1        0.0954
     19 N          -7.4549    2.2915    0.3876 N.ar    1  LIG1       -0.2381
     20 H          -3.7838    2.5624   -0.6479 H       1  LIG1        0.0644
     21 S          -7.5193   -0.2247    1.0729 S.3     1  LIG1       -0.1227
     22 H          -6.4420   -0.8170    1.5983 H       1  LIG1        0.1086
     23 N          -5.1605    4.8379   -0.9153 N.pl3   1  LIG1       -0.3563
     24 H          -4.3108    4.7737   -1.4585 H       1  LIG1        0.1424
     25 H          -5.8544    5.4372   -1.3447 H       1  LIG1        0.1424
     26 C          -9.1758    4.5422   -0.8152 C.ar    1  LIG1        0.1040
     27 C          -7.9485    4.5966   -0.1314 C.ar    1  LIG1        0.0356
     28 C          -7.6113    5.7895    0.4982 C.ar    1  LIG1       -0.0272
     29 C          -8.4551    6.9011    0.4327 C.ar    1  LIG1        0.0517
     30 C          -9.6447    6.7468   -0.2979 C.ar    1  LIG1        0.0954
     31 N          -9.9688    5.5998   -0.8876 N.ar    1  LIG1       -0.2381
     32 H          -6.6701    5.8568    1.0339 H       1  LIG1        0.0644
     33 S          -9.7724    3.1326   -1.7256 S.3     1  LIG1       -0.1227
     34 H          -9.1552    2.2138   -0.9749 H       1  LIG1        0.1086
     35 N          -8.1403    8.0887    1.0853 N.pl3   1  LIG1       -0.3563
     36 H          -7.1596    8.2080    1.2975 H       1  LIG1        0.1424
     37 H          -8.5588    8.9160    0.6797 H       1  LIG1        0.1424
     38 C         -11.0287    8.3986   -1.6613 C.ar    1  LIG1        0.1033
     39 C         -10.6073    7.8844   -0.4246 C.ar    1  LIG1        0.0355
     40 C         -11.1045    8.4727    0.7361 C.ar    1  LIG1       -0.0278
     41 C         -11.9727    9.5622    0.6563 C.ar    1  LIG1        0.0436
     42 C         -12.2921   10.0143   -0.6289 C.ar    1  LIG1        0.0495
     43 N         -11.8402    9.4454   -1.7370 N.ar    1  LIG1       -0.2465
     44 H         -10.8039    8.0796    1.7017 H       1  LIG1        0.0644
     45 H         -12.9528   10.8653   -0.7574 H       1  LIG1        0.0849
     46 S         -10.4808    7.7812   -3.2431 S.3     1  LIG1       -0.1228
     47 H         -10.3507    6.5080   -2.8518 H       1  LIG1        0.1086
     48 N         -12.5353   10.1442    1.7867 N.pl3   1  LIG1       -0.3568
     49 H         -12.0392    9.9911    2.6523 H       1  LIG1        0.1424
     50 H         -12.8497   11.0973    1.6769 H       1  LIG1        0.1424
@<TRIPOS>BOND
     1    46    47    1
     2    46    38    1
     3    12    11    1
     4    13    11    1
     5    11     4    1
     6    43    38   ar
     7    43    42   ar
     8    33    34    1
     9    33    26    1
    10    38    39   ar
    11     7     3    1
    12    24    23    1
    13    25    23    1
    14     4     3   ar
    15     4     5   ar
    16    23    17    1
    17    31    26   ar
    18    31    30   ar
    19    26    27   ar
    20    45    42    1
    21     3     2   ar
    22    20    16    1
    23    42    41   ar
    24    17    16   ar
    25    17    18   ar
    26    39    30    1
    27    39    40   ar
    28    16    15   ar
    29    30    29   ar
    30    27    18    1
    31    27    28   ar
    32    18    19   ar
    33    15     5    1
    34    15    14   ar
    35     5     6   ar
    36    19    14   ar
    37    29    28   ar
    38    29    35    1
    39     2     8    1
    40     2     1   ar
    41    28    32    1
    42    14    21    1
    43    41    40   ar
    44    41    48    1
    45    37    35    1
    46    40    44    1
    47    21    22    1
    48    35    36    1
    49     6     1   ar
    50     1     9    1
    51    50    48    1
    52    48    49    1
    53    10     9    1
