@<TRIPOS>MOLECULE
mol_data/opt/m06hf/geoms/mol2/6gh6gh-.out
 26 27 0 0 0
SMALL
GASTEIGER

@<TRIPOS>ATOM
      1 C          -4.3568   -1.9767    0.6351 C.ar    1  LIG1        0.0947
      2 C          -3.0241   -2.0272    0.2198 C.ar    1  LIG1       -0.0283
      3 C          -2.4794   -0.8974   -0.3636 C.ar    1  LIG1       -0.0365
      4 C          -3.2502    0.2607   -0.5170 C.ar    1  LIG1        0.0510
      5 C          -4.5689    0.2156   -0.0346 C.ar    1  LIG1        0.0954
      6 N          -5.0872   -0.8827    0.5110 N.ar    1  LIG1       -0.2388
      7 H          -1.4523   -0.9045   -0.7080 H       1  LIG1        0.0637
      8 H          -2.4332   -2.9247    0.3391 H       1  LIG1        0.0644
      9 S          -5.2355   -3.3464    1.3614 S.3     1  LIG1       -0.1234
     10 H          -4.2475   -4.2387    1.2354 H       1  LIG1        0.1086
     11 N          -2.7149    1.4130   -1.0895 N.pl3   1  LIG1       -0.3563
     12 H          -1.9419    1.2433   -1.7185 H       1  LIG1        0.1424
     13 H          -3.4048    2.0372   -1.4887 H       1  LIG1        0.1424
     14 C          -6.7058    1.4197   -0.7417 C.ar    1  LIG1        0.1033
     15 C          -5.4479    1.4231   -0.1153 C.ar    1  LIG1        0.0355
     16 C          -5.0011    2.6133    0.4548 C.ar    1  LIG1       -0.0278
     17 C          -5.7778    3.7693    0.3736 C.ar    1  LIG1        0.0436
     18 C          -6.9962    3.6564   -0.3040 C.ar    1  LIG1        0.0495
     19 N          -7.4369    2.5233   -0.8311 N.ar    1  LIG1       -0.2465
     20 H          -4.0398    2.6323    0.9569 H       1  LIG1        0.0644
     21 H          -7.6423    4.5213   -0.4101 H       1  LIG1        0.0849
     22 S          -7.4297    0.0042   -1.5498 S.3     1  LIG1       -0.1228
     23 H          -6.8830   -0.9150   -0.7448 H       1  LIG1        0.1086
     24 N          -5.3926    4.9637    0.9751 N.pl3   1  LIG1       -0.3568
     25 H          -4.4017    5.0670    1.1392 H       1  LIG1        0.1424
     26 H          -5.8126    5.7970    0.5889 H       1  LIG1        0.1424
@<TRIPOS>BOND
     1    12    11    1
     2    22    23    1
     3    22    14    1
     4    13    11    1
     5    11     4    1
     6    19    14   ar
     7    19    18   ar
     8    14    15   ar
     9     7     3    1
    10     4     3   ar
    11     4     5   ar
    12    21    18    1
    13     3     2   ar
    14    18    17   ar
    15    15     5    1
    16    15    16   ar
    17     5     6   ar
    18     2     8    1
    19     2     1   ar
    20    17    16   ar
    21    17    24    1
    22    16    20    1
    23     6     1   ar
    24    26    24    1
    25     1     9    1
    26    24    25    1
    27    10     9    1
