@<TRIPOS>MOLECULE
mol_data/opt/m06hf/geoms/mol2/6gh6gh6gh.out
 38 40 0 0 0
SMALL
GASTEIGER

@<TRIPOS>ATOM
      1 C          -3.9835   -1.8009    1.2155 C.ar    1  LIG1        0.0947
      2 C          -2.8708   -2.0252    0.3999 C.ar    1  LIG1       -0.0283
      3 C          -2.6081   -1.1171   -0.6095 C.ar    1  LIG1       -0.0365
      4 C          -3.4304    0.0023   -0.7875 C.ar    1  LIG1        0.0510
      5 C          -4.4963    0.1561    0.1149 C.ar    1  LIG1        0.0954
      6 N          -4.7536   -0.7375    1.0681 N.ar    1  LIG1       -0.2388
      7 H          -1.7641   -1.2691   -1.2717 H       1  LIG1        0.0637
      8 H          -2.2358   -2.8884    0.5431 H       1  LIG1        0.0644
      9 S          -4.5001   -2.8844    2.5306 S.3     1  LIG1       -0.1234
     10 H          -3.6320   -3.8651    2.2589 H       1  LIG1        0.1086
     11 N          -3.1726    0.9345   -1.7901 N.pl3   1  LIG1       -0.3563
     12 H          -2.6377    0.5732   -2.5679 H       1  LIG1        0.1424
     13 H          -3.9841    1.4594   -2.0925 H       1  LIG1        0.1424
     14 C          -6.7924    1.2650   -0.0655 C.ar    1  LIG1        0.1040
     15 C          -5.3924    1.3500    0.0367 C.ar    1  LIG1        0.0356
     16 C          -4.8199    2.6179    0.0493 C.ar    1  LIG1       -0.0272
     17 C          -5.6093    3.7652   -0.0565 C.ar    1  LIG1        0.0517
     18 C          -6.9944    3.5659   -0.1794 C.ar    1  LIG1        0.0954
     19 N          -7.5386    2.3531   -0.1802 N.ar    1  LIG1       -0.2381
     20 H          -3.7417    2.7088    0.1272 H       1  LIG1        0.0644
     21 S          -7.7278   -0.2485   -0.1377 S.3     1  LIG1       -0.1227
     22 H          -6.8248   -1.0035    0.5009 H       1  LIG1        0.1086
     23 N          -5.0527    5.0396   -0.0114 N.pl3   1  LIG1       -0.3563
     24 H          -4.0717    5.0821   -0.2491 H       1  LIG1        0.1424
     25 H          -5.6023    5.7527   -0.4738 H       1  LIG1        0.1424
     26 C          -8.7861    4.9161   -1.3875 C.ar    1  LIG1        0.1033
     27 C          -7.9174    4.7360   -0.2989 C.ar    1  LIG1        0.0355
     28 C          -7.9126    5.6996    0.7067 C.ar    1  LIG1       -0.0278
     29 C          -8.7367    6.8215    0.6082 C.ar    1  LIG1        0.0436
     30 C          -9.5364    6.9117   -0.5362 C.ar    1  LIG1        0.0495
     31 N          -9.5594    5.9889   -1.4875 N.ar    1  LIG1       -0.2465
     32 H          -7.2590    5.5706    1.5627 H       1  LIG1        0.0644
     33 H         -10.1930    7.7642   -0.6751 H       1  LIG1        0.0849
     34 S          -8.8899    3.8011   -2.7773 S.3     1  LIG1       -0.1228
     35 H          -8.6530    2.6854   -2.0777 H       1  LIG1        0.1086
     36 N          -8.8030    7.7796    1.6141 N.pl3   1  LIG1       -0.3568
     37 H          -7.9920    7.8411    2.2123 H       1  LIG1        0.1424
     38 H          -9.1468    8.6853    1.3287 H       1  LIG1        0.1424
@<TRIPOS>BOND
     1    34    35    1
     2    34    26    1
     3    12    11    1
     4    13    11    1
     5    11     4    1
     6    31    26   ar
     7    31    30   ar
     8    26    27   ar
     9     7     3    1
    10     4     3   ar
    11     4     5   ar
    12    33    30    1
    13     3     2   ar
    14    30    29   ar
    15    25    23    1
    16    27    18    1
    17    27    28   ar
    18    24    23    1
    19    19    18   ar
    20    19    14   ar
    21    18    17   ar
    22    21    14    1
    23    21    22    1
    24    14    15   ar
    25    17    23    1
    26    17    16   ar
    27    15    16   ar
    28    15     5    1
    29    16    20    1
    30     5     6   ar
    31     2     8    1
    32     2     1   ar
    33    29    28   ar
    34    29    36    1
    35    28    32    1
    36     6     1   ar
    37     1     9    1
    38    38    36    1
    39    36    37    1
    40    10     9    1
