@<TRIPOS>MOLECULE
mol_data/opt/m06hf/geoms/mol2/6gh6gh6gh-.out
 38 40 0 0 0
SMALL
GASTEIGER

@<TRIPOS>ATOM
      1 C          -3.9836   -1.8037    1.2069 C.ar    1  LIG1        0.0947
      2 C          -2.8719   -2.0270    0.3896 C.ar    1  LIG1       -0.0283
      3 C          -2.6101   -1.1171   -0.6184 C.ar    1  LIG1       -0.0365
      4 C          -3.4321    0.0029   -0.7935 C.ar    1  LIG1        0.0510
      5 C          -4.4969    0.1555    0.1105 C.ar    1  LIG1        0.0954
      6 N          -4.7535   -0.7397    1.0624 N.ar    1  LIG1       -0.2388
      7 H          -1.7669   -1.2682   -1.2819 H       1  LIG1        0.0637
      8 H          -2.2371   -2.8906    0.5305 H       1  LIG1        0.0644
      9 S          -4.4991   -2.8894    2.5206 S.3     1  LIG1       -0.1234
     10 H          -3.6317   -3.8699    2.2462 H       1  LIG1        0.1086
     11 N          -3.1751    0.9368   -1.7946 N.pl3   1  LIG1       -0.3563
     12 H          -2.6413    0.5768   -2.5737 H       1  LIG1        0.1424
     13 H          -3.9868    1.4627   -2.0952 H       1  LIG1        0.1424
     14 C          -6.7928    1.2656   -0.0652 C.ar    1  LIG1        0.1040
     15 C          -5.3926    1.3499    0.0355 C.ar    1  LIG1        0.0356
     16 C          -4.8196    2.6176    0.0498 C.ar    1  LIG1       -0.0272
     17 C          -5.6087    3.7654   -0.0531 C.ar    1  LIG1        0.0517
     18 C          -6.9940    3.5668   -0.1747 C.ar    1  LIG1        0.0954
     19 N          -7.5387    2.3543   -0.1770 N.ar    1  LIG1       -0.2381
     20 H          -3.7413    2.7079    0.1266 H       1  LIG1        0.0644
     21 S          -7.7289   -0.2474   -0.1391 S.3     1  LIG1       -0.1227
     22 H          -6.8254   -1.0038    0.4971 H       1  LIG1        0.1086
     23 N          -5.0516    5.0395   -0.0063 N.pl3   1  LIG1       -0.3563
     24 H          -4.0708    5.0821   -0.2450 H       1  LIG1        0.1424
     25 H          -5.6015    5.7537   -0.4667 H       1  LIG1        0.1424
     26 C          -8.7866    4.9199   -1.3782 C.ar    1  LIG1        0.1033
     27 C          -7.9168    4.7375   -0.2910 C.ar    1  LIG1        0.0355
     28 C          -7.9104    5.6992    0.7164 C.ar    1  LIG1       -0.0278
     29 C          -8.7342    6.8216    0.6208 C.ar    1  LIG1        0.0436
     30 C          -9.5352    6.9143   -0.5225 C.ar    1  LIG1        0.0495
     31 N          -9.5597    5.9931   -1.4755 N.ar    1  LIG1       -0.2465
     32 H          -7.2559    5.5684    1.5714 H       1  LIG1        0.0644
     33 H         -10.1916    7.7673   -0.6590 H       1  LIG1        0.0849
     34 S          -8.8924    3.8075   -2.7700 S.3     1  LIG1       -0.1228
     35 H          -8.6551    2.6904   -2.0727 H       1  LIG1        0.1086
     36 N          -8.7990    7.7779    1.6286 N.pl3   1  LIG1       -0.3568
     37 H          -7.9873    7.8380    2.2260 H       1  LIG1        0.1424
     38 H          -9.1427    8.6843    1.3453 H       1  LIG1        0.1424
@<TRIPOS>BOND
     1    34    35    1
     2    34    26    1
     3    12    11    1
     4    13    11    1
     5    11     4    1
     6    31    26   ar
     7    31    30   ar
     8    26    27   ar
     9     7     3    1
    10     4     3   ar
    11     4     5   ar
    12    33    30    1
    13     3     2   ar
    14    30    29   ar
    15    25    23    1
    16    27    18    1
    17    27    28   ar
    18    24    23    1
    19    19    18   ar
    20    19    14   ar
    21    18    17   ar
    22    21    14    1
    23    21    22    1
    24    14    15   ar
    25    17    23    1
    26    17    16   ar
    27    15    16   ar
    28    15     5    1
    29    16    20    1
    30     5     6   ar
    31     2     8    1
    32     2     1   ar
    33    29    28   ar
    34    29    36    1
    35    28    32    1
    36     6     1   ar
    37     1     9    1
    38    38    36    1
    39    36    37    1
    40    10     9    1
