@<TRIPOS>MOLECULE
mol_data/opt/m06hf/geoms/mol2/6gh6gh-6gh-6gh-.out
 50 53 0 0 0
SMALL
GASTEIGER

@<TRIPOS>ATOM
      1 C          -3.4837   -1.5324    1.5345 C.ar    1  LIG1        0.0947
      2 C          -2.6691   -1.9896    0.4952 C.ar    1  LIG1       -0.0283
      3 C          -2.7602   -1.3588   -0.7324 C.ar    1  LIG1       -0.0365
      4 C          -3.6403   -0.2848   -0.9132 C.ar    1  LIG1        0.0510
      5 C          -4.3897    0.1153    0.2056 C.ar    1  LIG1        0.0954
      6 N          -4.3072   -0.5111    1.3776 N.ar    1  LIG1       -0.2388
      7 H          -2.1528   -1.6962   -1.5635 H       1  LIG1        0.0637
      8 H          -1.9925   -2.8207    0.6380 H       1  LIG1        0.0644
      9 S          -3.5351   -2.2472    3.1642 S.3     1  LIG1       -0.1234
     10 H          -2.6166   -3.1924    2.9392 H       1  LIG1        0.1086
     11 N          -3.7356    0.3752   -2.1363 N.pl3   1  LIG1       -0.3563
     12 H          -3.4369   -0.1721   -2.9319 H       1  LIG1        0.1424
     13 H          -4.6247    0.8325   -2.2962 H       1  LIG1        0.1424
     14 C          -6.6727    1.2292    0.4888 C.ar    1  LIG1        0.1040
     15 C          -5.3146    1.2872    0.1251 C.ar    1  LIG1        0.0356
     16 C          -4.8208    2.5008   -0.3393 C.ar    1  LIG1       -0.0272
     17 C          -5.6487    3.6206   -0.4550 C.ar    1  LIG1        0.0517
     18 C          -6.9897    3.4518   -0.0725 C.ar    1  LIG1        0.0954
     19 N          -7.4571    2.2894    0.3734 N.ar    1  LIG1       -0.2381
     20 H          -3.7777    2.5688   -0.6299 H       1  LIG1        0.0644
     21 S          -7.5251   -0.2304    1.0445 S.3     1  LIG1       -0.1227
     22 H          -6.4517   -0.8247    1.5758 H       1  LIG1        0.1086
     23 N          -5.1540    4.8446   -0.8966 N.pl3   1  LIG1       -0.3563
     24 H          -4.2997    4.7840   -1.4330 H       1  LIG1        0.1424
     25 H          -5.8448    5.4457   -1.3286 H       1  LIG1        0.1424
     26 C          -9.1697    4.5452   -0.8316 C.ar    1  LIG1        0.1040
     27 C          -7.9483    4.5969   -0.1373 C.ar    1  LIG1        0.0356
     28 C          -7.6172    5.7867    0.5015 C.ar    1  LIG1       -0.0272
     29 C          -8.4614    6.8980    0.4349 C.ar    1  LIG1        0.0517
     30 C          -9.6447    6.7466   -0.3064 C.ar    1  LIG1        0.0954
     31 N          -9.9630    5.6026   -0.9049 N.ar    1  LIG1       -0.2381
     32 H          -6.6806    5.8518    1.0454 H       1  LIG1        0.0644
     33 S          -9.7575    3.1400   -1.7545 S.3     1  LIG1       -0.1227
     34 H          -9.1459    2.2178   -1.0037 H       1  LIG1        0.1086
     35 N          -8.1530    8.0823    1.0965 N.pl3   1  LIG1       -0.3563
     36 H          -7.1743    8.2012    1.3175 H       1  LIG1        0.1424
     37 H          -8.5689    8.9114    0.6918 H       1  LIG1        0.1424
     38 C         -11.0187    8.4047   -1.6724 C.ar    1  LIG1        0.1033
     39 C         -10.6072    7.8841   -0.4350 C.ar    1  LIG1        0.0355
     40 C         -11.1146    8.4657    0.7247 C.ar    1  LIG1       -0.0278
     41 C         -11.9830    9.5550    0.6435 C.ar    1  LIG1        0.0436
     42 C         -12.2920   10.0138   -0.6419 C.ar    1  LIG1        0.0495
     43 N         -11.8304    9.4512   -1.7492 N.ar    1  LIG1       -0.2465
     44 H         -10.8217    8.0677    1.6906 H       1  LIG1        0.0644
     45 H         -12.9523   10.8649   -0.7713 H       1  LIG1        0.0849
     46 S         -10.4571    7.7963   -3.2528 S.3     1  LIG1       -0.1228
     47 H         -10.3292    6.5210   -2.8674 H       1  LIG1        0.1086
     48 N         -12.5555   10.1305    1.7722 N.pl3   1  LIG1       -0.3568
     49 H         -12.0665    9.9731    2.6411 H       1  LIG1        0.1424
     50 H         -12.8698   11.0839    1.6650 H       1  LIG1        0.1424
@<TRIPOS>BOND
     1    46    47    1
     2    46    38    1
     3    12    11    1
     4    13    11    1
     5    11     4    1
     6    33    34    1
     7    33    26    1
     8    43    38   ar
     9    43    42   ar
    10    38    39   ar
    11     7     3    1
    12    24    23    1
    13    25    23    1
    14     4     3   ar
    15     4     5   ar
    16    31    26   ar
    17    31    30   ar
    18    23    17    1
    19    26    27   ar
    20    45    42    1
    21     3     2   ar
    22    42    41   ar
    23    20    16    1
    24    17    16   ar
    25    17    18   ar
    26    39    30    1
    27    39    40   ar
    28    16    15   ar
    29    30    29   ar
    30    27    18    1
    31    27    28   ar
    32    18    19   ar
    33    15     5    1
    34    15    14   ar
    35     5     6   ar
    36    19    14   ar
    37    29    28   ar
    38    29    35    1
    39    14    21    1
    40     2     8    1
    41     2     1   ar
    42    28    32    1
    43    41    40   ar
    44    41    48    1
    45    37    35    1
    46    40    44    1
    47    21    22    1
    48    35    36    1
    49     6     1   ar
    50     1     9    1
    51    50    48    1
    52    48    49    1
    53    10     9    1
