@<TRIPOS>MOLECULE
mol_data/opt/m06hf/geoms/mol2/6gh6gh-6gh6gh-.out
 50 53 0 0 0
SMALL
GASTEIGER

@<TRIPOS>ATOM
      1 C          -3.5002   -1.5412    1.5439 C.ar    1  LIG1        0.0947
      2 C          -2.6771   -1.9946    0.5095 C.ar    1  LIG1       -0.0283
      3 C          -2.7578   -1.3588   -0.7162 C.ar    1  LIG1       -0.0365
      4 C          -3.6357   -0.2836   -0.9000 C.ar    1  LIG1        0.0510
      5 C          -4.3942    0.1124    0.2142 C.ar    1  LIG1        0.0954
      6 N          -4.3218   -0.5188    1.3843 N.ar    1  LIG1       -0.2388
      7 H          -2.1436   -1.6931   -1.5436 H       1  LIG1        0.0637
      8 H          -2.0022   -2.8266    0.6546 H       1  LIG1        0.0644
      9 S          -3.5655   -2.2625    3.1702 S.3     1  LIG1       -0.1234
     10 H          -2.6456   -3.2073    2.9490 H       1  LIG1        0.1086
     11 N          -3.7206    0.3813   -2.1211 N.pl3   1  LIG1       -0.3563
     12 H          -3.4155   -0.1628   -2.9164 H       1  LIG1        0.1424
     13 H          -4.6081    0.8398   -2.2866 H       1  LIG1        0.1424
     14 C          -6.6789    1.2264    0.4829 C.ar    1  LIG1        0.1040
     15 C          -5.3178    1.2850    0.1307 C.ar    1  LIG1        0.0356
     16 C          -4.8196    2.5003   -0.3246 C.ar    1  LIG1       -0.0272
     17 C          -5.6459    3.6210   -0.4427 C.ar    1  LIG1        0.0517
     18 C          -6.9901    3.4513   -0.0721 C.ar    1  LIG1        0.0954
     19 N          -7.4618    2.2874    0.3652 N.ar    1  LIG1       -0.2381
     20 H          -3.7740    2.5689   -0.6063 H       1  LIG1        0.0644
     21 S          -7.5367   -0.2351    1.0256 S.3     1  LIG1       -0.1227
     22 H          -6.4680   -0.8321    1.5633 H       1  LIG1        0.1086
     23 N          -5.1470    4.8465   -0.8752 N.pl3   1  LIG1       -0.3563
     24 H          -4.2882    4.7876   -1.4048 H       1  LIG1        0.1424
     25 H          -5.8338    5.4497   -1.3105 H       1  LIG1        0.1424
     26 C          -9.1632    4.5490   -0.8449 C.ar    1  LIG1        0.1040
     27 C          -7.9476    4.5972   -0.1402 C.ar    1  LIG1        0.0356
     28 C          -7.6213    5.7842    0.5061 C.ar    1  LIG1       -0.0272
     29 C          -8.4643    6.8962    0.4370 C.ar    1  LIG1        0.0517
     30 C          -9.6415    6.7485   -0.3147 C.ar    1  LIG1        0.0954
     31 N          -9.9553    5.6071   -0.9205 N.ar    1  LIG1       -0.2381
     32 H          -6.6892    5.8466    1.0581 H       1  LIG1        0.0644
     33 S          -9.7440    3.1479   -1.7783 S.3     1  LIG1       -0.1227
     34 H          -9.1392    2.2223   -1.0261 H       1  LIG1        0.1086
     35 N          -8.1608    8.0777    1.1059 N.pl3   1  LIG1       -0.3563
     36 H          -7.1839    8.1952    1.3355 H       1  LIG1        0.1424
     37 H          -8.5729    8.9087    0.7012 H       1  LIG1        0.1424
     38 C         -11.0032    8.4128   -1.6854 C.ar    1  LIG1        0.1033
     39 C         -10.6023    7.8870   -0.4468 C.ar    1  LIG1        0.0355
     40 C         -11.1190    8.4642    0.7110 C.ar    1  LIG1       -0.0278
     41 C         -11.9862    9.5543    0.6270 C.ar    1  LIG1        0.0436
     42 C         -12.2843   10.0184   -0.6590 C.ar    1  LIG1        0.0495
     43 N         -11.8137    9.4601   -1.7647 N.ar    1  LIG1       -0.2465
     44 H         -10.8344    8.0622    1.6777 H       1  LIG1        0.0644
     45 H         -12.9430   10.8704   -0.7905 H       1  LIG1        0.0849
     46 S         -10.4288    7.8105   -3.2636 S.3     1  LIG1       -0.1228
     47 H         -10.3047    6.5337   -2.8822 H       1  LIG1        0.1086
     48 N         -12.5677   10.1255    1.7533 N.pl3   1  LIG1       -0.3568
     49 H         -12.0861    9.9644    2.6256 H       1  LIG1        0.1424
     50 H         -12.8807   11.0796    1.6473 H       1  LIG1        0.1424
@<TRIPOS>BOND
     1    46    47    1
     2    46    38    1
     3    12    11    1
     4    13    11    1
     5    11     4    1
     6    33    34    1
     7    33    26    1
     8    43    38   ar
     9    43    42   ar
    10    38    39   ar
    11     7     3    1
    12    24    23    1
    13    25    23    1
    14    31    26   ar
    15    31    30   ar
    16     4     3   ar
    17     4     5   ar
    18    23    17    1
    19    26    27   ar
    20    45    42    1
    21     3     2   ar
    22    42    41   ar
    23    20    16    1
    24    39    30    1
    25    39    40   ar
    26    17    16   ar
    27    17    18   ar
    28    16    15   ar
    29    30    29   ar
    30    27    18    1
    31    27    28   ar
    32    18    19   ar
    33    15     5    1
    34    15    14   ar
    35     5     6   ar
    36    19    14   ar
    37    29    28   ar
    38    29    35    1
    39    14    21    1
    40    28    32    1
    41     2     8    1
    42     2     1   ar
    43    41    40   ar
    44    41    48    1
    45    37    35    1
    46    40    44    1
    47    21    22    1
    48    35    36    1
    49     6     1   ar
    50     1     9    1
    51    50    48    1
    52    48    49    1
    53    10     9    1
