@<TRIPOS>MOLECULE
mol_data/opt/m06hf/geoms/mol2/6gh6gh6gh6gh.out
 50 53 0 0 0
SMALL
GASTEIGER

@<TRIPOS>ATOM
      1 C          -3.4747   -1.5245    1.5450 C.ar    1  LIG1        0.0947
      2 C          -2.6666   -1.9878    0.5032 C.ar    1  LIG1       -0.0283
      3 C          -2.7654   -1.3640   -0.7273 C.ar    1  LIG1       -0.0365
      4 C          -3.6464   -0.2909   -0.9089 C.ar    1  LIG1        0.0510
      5 C          -4.3888    0.1157    0.2123 C.ar    1  LIG1        0.0954
      6 N          -4.2990   -0.5039    1.3874 N.ar    1  LIG1       -0.2388
      7 H          -2.1632   -1.7062   -1.5603 H       1  LIG1        0.0637
      8 H          -1.9893   -2.8181    0.6466 H       1  LIG1        0.0644
      9 S          -3.5160   -2.2299    3.1790 S.3     1  LIG1       -0.1234
     10 H          -2.5991   -3.1765    2.9537 H       1  LIG1        0.1086
     11 N          -3.7493    0.3620   -2.1351 N.pl3   1  LIG1       -0.3563
     12 H          -3.4556   -0.1898   -2.9294 H       1  LIG1        0.1424
     13 H          -4.6393    0.8186   -2.2921 H       1  LIG1        0.1424
     14 C          -6.6698    1.2317    0.5033 C.ar    1  LIG1        0.1040
     15 C          -5.3140    1.2873    0.1308 C.ar    1  LIG1        0.0356
     16 C          -4.8229    2.4981   -0.3436 C.ar    1  LIG1       -0.0272
     17 C          -5.6514    3.6174   -0.4606 C.ar    1  LIG1        0.0517
     18 C          -6.9900    3.4510   -0.0688 C.ar    1  LIG1        0.0954
     19 N          -7.4547    2.2913    0.3867 N.ar    1  LIG1       -0.2381
     20 H          -3.7816    2.5643   -0.6412 H       1  LIG1        0.0644
     21 S          -7.5189   -0.2246    1.0727 S.3     1  LIG1       -0.1227
     22 H          -6.4423   -0.8160    1.6007 H       1  LIG1        0.1086
     23 N          -5.1593    4.8388   -0.9123 N.pl3   1  LIG1       -0.3563
     24 H          -4.3083    4.7749   -1.4537 H       1  LIG1        0.1424
     25 H          -5.8527    5.4374   -1.3434 H       1  LIG1        0.1424
     26 C          -9.1745    4.5404   -0.8206 C.ar    1  LIG1        0.1040
     27 C          -7.9488    4.5959   -0.1342 C.ar    1  LIG1        0.0356
     28 C          -7.6136    5.7893    0.4957 C.ar    1  LIG1       -0.0272
     29 C          -8.4581    6.9003    0.4280 C.ar    1  LIG1        0.0517
     30 C          -9.6460    6.7449   -0.3050 C.ar    1  LIG1        0.0954
     31 N          -9.9681    5.5975   -0.8950 N.ar    1  LIG1       -0.2381
     32 H          -6.6736    5.8574    1.0334 H       1  LIG1        0.0644
     33 S          -9.7683    3.1301   -1.7317 S.3     1  LIG1       -0.1227
     34 H          -9.1521    2.2120   -0.9794 H       1  LIG1        0.1086
     35 N          -8.1454    8.0883    1.0808 N.pl3   1  LIG1       -0.3563
     36 H          -7.1653    8.2084    1.2950 H       1  LIG1        0.1424
     37 H          -8.5636    8.9152    0.6740 H       1  LIG1        0.1424
     38 C         -11.0282    8.3953   -1.6720 C.ar    1  LIG1        0.1033
     39 C         -10.6091    7.8818   -0.4342 C.ar    1  LIG1        0.0355
     40 C         -11.1092    8.4702    0.7252 C.ar    1  LIG1       -0.0278
     41 C         -11.9779    9.5591    0.6432 C.ar    1  LIG1        0.0436
     42 C         -12.2949   10.0105   -0.6428 C.ar    1  LIG1        0.0495
     43 N         -11.8403    9.4416   -1.7498 N.ar    1  LIG1       -0.2465
     44 H         -10.8103    8.0777    1.6916 H       1  LIG1        0.0644
     45 H         -12.9558   10.8610   -0.7730 H       1  LIG1        0.0849
     46 S         -10.4766    7.7777   -3.2524 S.3     1  LIG1       -0.1228
     47 H         -10.3464    6.5047   -2.8604 H       1  LIG1        0.1086
     48 N         -12.5433   10.1411    1.7722 N.pl3   1  LIG1       -0.3568
     49 H         -12.0489    9.9887    2.6389 H       1  LIG1        0.1424
     50 H         -12.8582   11.0940    1.6614 H       1  LIG1        0.1424
@<TRIPOS>BOND
     1    46    47    1
     2    46    38    1
     3    12    11    1
     4    13    11    1
     5    11     4    1
     6    43    38   ar
     7    43    42   ar
     8    33    34    1
     9    33    26    1
    10    38    39   ar
    11     7     3    1
    12    24    23    1
    13    25    23    1
    14    23    17    1
    15     4     3   ar
    16     4     5   ar
    17    31    26   ar
    18    31    30   ar
    19    26    27   ar
    20    45    42    1
    21     3     2   ar
    22    42    41   ar
    23    20    16    1
    24    17    16   ar
    25    17    18   ar
    26    39    30    1
    27    39    40   ar
    28    16    15   ar
    29    30    29   ar
    30    27    18    1
    31    27    28   ar
    32    18    19   ar
    33    15     5    1
    34    15    14   ar
    35     5     6   ar
    36    19    14   ar
    37    29    28   ar
    38    29    35    1
    39    28    32    1
    40     2     8    1
    41     2     1   ar
    42    14    21    1
    43    41    40   ar
    44    41    48    1
    45    37    35    1
    46    40    44    1
    47    21    22    1
    48    35    36    1
    49     6     1   ar
    50     1     9    1
    51    50    48    1
    52    48    49    1
    53    10     9    1
