@<TRIPOS>MOLECULE
mol_data/opt/m06hf/geoms/mol2/6gi.out
 15 15 0 0 0
SMALL
GASTEIGER

@<TRIPOS>ATOM
      1 C          -4.5609   -2.0486    0.0464 C.ar    1  LIG1        0.0939
      2 C          -3.1662   -2.0412   -0.0581 C.ar    1  LIG1       -0.0298
      3 C          -2.5247   -0.8128   -0.0784 C.ar    1  LIG1       -0.0549
      4 C          -3.2656    0.3676    0.0065 C.ar    1  LIG1       -0.0323
      5 C          -4.6469    0.2291    0.1101 C.ar    1  LIG1        0.0317
      6 N          -5.2821   -0.9419    0.1297 N.ar    1  LIG1       -0.2487
      7 H          -1.4445   -0.7692   -0.1595 H       1  LIG1        0.0621
      8 H          -2.6066   -2.9638   -0.1194 H       1  LIG1        0.0644
      9 H          -5.2784    1.1078    0.1796 H       1  LIG1        0.0832
     10 S          -5.5346   -3.5394    0.0884 S.3     1  LIG1       -0.1234
     11 H          -4.5162   -4.3857   -0.0969 H       1  LIG1        0.1086
     12 C          -2.6019    1.7298   -0.0096 C.3     1  LIG1       -0.0383
     13 H          -3.3527    2.5191    0.0104 H       1  LIG1        0.0278
     14 H          -1.9986    1.8479   -0.9106 H       1  LIG1        0.0278
     15 H          -1.9525    1.8468    0.8591 H       1  LIG1        0.0278
@<TRIPOS>BOND
     1    14    12    1
     2     7     3    1
     3     8     2    1
     4    11    10    1
     5     3     2   ar
     6     3     4   ar
     7     2     1   ar
     8    12     4    1
     9    12    13    1
    10    12    15    1
    11     4     5   ar
    12     1    10    1
    13     1     6   ar
    14     5     6   ar
    15     5     9    1
