@<TRIPOS>MOLECULE
mol_data/opt/m06hf/geoms/mol2/6gi6gi-.out
 28 29 0 0 0
SMALL
GASTEIGER

@<TRIPOS>ATOM
      1 C          -4.3363   -1.7112   -1.1924 C.ar    1  LIG1        0.0946
      2 C          -3.1668   -2.0618   -0.5151 C.ar    1  LIG1       -0.0297
      3 C          -2.6750   -1.1708    0.4281 C.ar    1  LIG1       -0.0543
      4 C          -3.3384    0.0278    0.6878 C.ar    1  LIG1       -0.0243
      5 C          -4.5080    0.2631   -0.0463 C.ar    1  LIG1        0.0777
      6 N          -4.9858   -0.5780   -0.9629 N.ar    1  LIG1       -0.2404
      7 H          -1.7644   -1.4060    0.9663 H       1  LIG1        0.0622
      8 H          -2.6586   -2.9936   -0.7199 H       1  LIG1        0.0644
      9 S          -5.1056   -2.7286   -2.4325 S.3     1  LIG1       -0.1234
     10 H          -4.2026   -3.7128   -2.3906 H       1  LIG1        0.1086
     11 C          -2.8283    1.0268    1.7065 C.3     1  LIG1       -0.0377
     12 H          -3.5023    1.0701    2.5646 H       1  LIG1        0.0278
     13 H          -2.7733    2.0228    1.2657 H       1  LIG1        0.0278
     14 H          -1.8365    0.7346    2.0499 H       1  LIG1        0.0278
     15 C          -6.1197    1.7268    1.2665 C.ar    1  LIG1        0.1031
     16 C          -5.2850    1.5271    0.1574 C.ar    1  LIG1        0.0325
     17 C          -5.1923    2.5571   -0.7705 C.ar    1  LIG1       -0.0457
     18 C          -5.8777    3.7545   -0.5705 C.ar    1  LIG1       -0.0317
     19 C          -6.6449    3.8437    0.5884 C.ar    1  LIG1        0.0318
     20 N          -6.7722    2.8601    1.4755 N.ar    1  LIG1       -0.2481
     21 H          -4.5754    2.4155   -1.6516 H       1  LIG1        0.0628
     22 H          -7.1962    4.7512    0.8086 H       1  LIG1        0.0832
     23 S          -6.4096    0.4960    2.5207 S.3     1  LIG1       -0.1228
     24 H          -5.9115   -0.5374    1.8314 H       1  LIG1        0.1086
     25 C          -5.7855    4.9020   -1.5552 C.3     1  LIG1       -0.0383
     26 H          -6.4810    5.6943   -1.2808 H       1  LIG1        0.0278
     27 H          -6.0282    4.5589   -2.5614 H       1  LIG1        0.0278
     28 H          -4.7752    5.3146   -1.5645 H       1  LIG1        0.0278
@<TRIPOS>BOND
     1    27    25    1
     2     9    10    1
     3     9     1    1
     4    21    17    1
     5    28    25    1
     6    25    26    1
     7    25    18    1
     8     1     6   ar
     9     1     2   ar
    10     6     5   ar
    11    17    18   ar
    12    17    16   ar
    13     8     2    1
    14    18    19   ar
    15     2     3   ar
    16     5    16    1
    17     5     4   ar
    18    16    15   ar
    19     3     4   ar
    20     3     7    1
    21    19    22    1
    22    19    20   ar
    23     4    11    1
    24    13    11    1
    25    15    20   ar
    26    15    23    1
    27    11    14    1
    28    11    12    1
    29    24    23    1
