@<TRIPOS>MOLECULE
mol_data/opt/m06hf/geoms/mol2/6gi6gi6gi6gi.out
 54 57 0 0 0
SMALL
GASTEIGER

@<TRIPOS>ATOM
      1 C          -3.4382   -1.4355   -1.7737 C.ar    1  LIG1        0.0946
      2 C          -2.7687   -2.0532   -0.7138 C.ar    1  LIG1       -0.0297
      3 C          -2.9807   -1.5497    0.5584 C.ar    1  LIG1       -0.0543
      4 C          -3.8211   -0.4524    0.7684 C.ar    1  LIG1       -0.0243
      5 C          -4.4132    0.1015   -0.3720 C.ar    1  LIG1        0.0777
      6 N          -4.2321   -0.3912   -1.6006 N.ar    1  LIG1       -0.2404
      7 H          -2.5002   -2.0198    1.4083 H       1  LIG1        0.0622
      8 H          -2.1257   -2.9064   -0.8785 H       1  LIG1        0.0644
      9 S          -3.3404   -1.9779   -3.4636 S.3     1  LIG1       -0.1234
     10 H          -2.4293   -2.9339   -3.2577 H       1  LIG1        0.1086
     11 C          -4.0819    0.0654    2.1707 C.3     1  LIG1       -0.0377
     12 H          -5.0861    0.4800    2.2477 H       1  LIG1        0.0278
     13 H          -3.3653    0.8441    2.4390 H       1  LIG1        0.0278
     14 H          -3.9810   -0.7516    2.8849 H       1  LIG1        0.0278
     15 C          -6.6402    1.3168   -0.6816 C.ar    1  LIG1        0.1038
     16 C          -5.2923    1.3094   -0.2811 C.ar    1  LIG1        0.0325
     17 C          -4.7806    2.4910    0.2402 C.ar    1  LIG1       -0.0451
     18 C          -5.5666    3.6350    0.3730 C.ar    1  LIG1       -0.0237
     19 C          -6.8926    3.5210   -0.0557 C.ar    1  LIG1        0.0777
     20 N          -7.4019    2.3947   -0.5566 N.ar    1  LIG1       -0.2397
     21 H          -3.7431    2.5162    0.5567 H       1  LIG1        0.0628
     22 S          -7.5120   -0.0928   -1.3217 S.3     1  LIG1       -0.1227
     23 H          -6.4223   -0.7760   -1.6815 H       1  LIG1        0.1086
     24 C          -5.0014    4.9028    0.9847 C.3     1  LIG1       -0.0377
     25 H          -5.7618    5.4159    1.5728 H       1  LIG1        0.0278
     26 H          -4.6448    5.5862    0.2118 H       1  LIG1        0.0278
     27 H          -4.1616    4.6527    1.6326 H       1  LIG1        0.0278
     28 C          -8.9642    4.7066    0.8386 C.ar    1  LIG1        0.1038
     29 C          -7.8223    4.6909    0.0217 C.ar    1  LIG1        0.0325
     30 C          -7.5395    5.8455   -0.6987 C.ar    1  LIG1       -0.0451
     31 C          -8.3416    6.9808   -0.5960 C.ar    1  LIG1       -0.0237
     32 C          -9.4369    6.8860    0.2684 C.ar    1  LIG1        0.0777
     33 N          -9.7299    5.7828    0.9581 N.ar    1  LIG1       -0.2397
     34 H          -6.6667    5.8611   -1.3430 H       1  LIG1        0.0628
     35 S          -9.4745    3.3474    1.8652 S.3     1  LIG1       -0.1227
     36 H          -8.9161    2.3922    1.1156 H       1  LIG1        0.1086
     37 C          -8.0110    8.2545   -1.3482 C.3     1  LIG1       -0.0377
     38 H          -8.1630    9.1227   -0.7063 H       1  LIG1        0.0278
     39 H          -8.6478    8.3641   -2.2279 H       1  LIG1        0.0278
     40 H          -6.9720    8.2305   -1.6757 H       1  LIG1        0.0278
     41 C         -10.3955    8.7887    1.6590 C.ar    1  LIG1        0.1031
     42 C         -10.3549    8.0525    0.4626 C.ar    1  LIG1        0.0325
     43 C         -11.1893    8.4610   -0.5707 C.ar    1  LIG1       -0.0457
     44 C         -12.0154    9.5745   -0.4217 C.ar    1  LIG1       -0.0317
     45 C         -11.9407   10.2397    0.7983 C.ar    1  LIG1        0.0318
     46 N         -11.1622    9.8587    1.8086 N.ar    1  LIG1       -0.2481
     47 H         -11.1925    7.9001   -1.5000 H       1  LIG1        0.0628
     48 H         -12.5424   11.1247    0.9751 H       1  LIG1        0.0832
     49 S          -9.3878    8.4269    3.0800 S.3     1  LIG1       -0.1228
     50 H          -9.1420    7.1529    2.7597 H       1  LIG1        0.1086
     51 C         -12.9489   10.0297   -1.5241 C.3     1  LIG1       -0.0383
     52 H         -13.3866   10.9963   -1.2768 H       1  LIG1        0.0278
     53 H         -13.7555    9.3076   -1.6594 H       1  LIG1        0.0278
     54 H         -12.4090   10.1238   -2.4673 H       1  LIG1        0.0278
@<TRIPOS>BOND
     1     9    10    1
     2     9     1    1
     3    54    51    1
     4    39    37    1
     5     1     6   ar
     6     1     2   ar
     7    23    22    1
     8    40    37    1
     9    53    51    1
    10     6     5   ar
    11    51    52    1
    12    51    44    1
    13    47    43    1
    14    37    38    1
    15    37    31    1
    16    34    30    1
    17    22    15    1
    18     8     2    1
    19     2     3   ar
    20    30    31   ar
    21    30    29   ar
    22    15    20   ar
    23    15    16   ar
    24    31    32   ar
    25    43    44   ar
    26    43    42   ar
    27    20    19   ar
    28    44    45   ar
    29     5    16    1
    30     5     4   ar
    31    16    17   ar
    32    19    29    1
    33    19    18   ar
    34    29    28   ar
    35    26    24    1
    36    17    18   ar
    37    17    21    1
    38    32    42    1
    39    32    33   ar
    40    18    24    1
    41    42    41   ar
    42     3     4   ar
    43     3     7    1
    44     4    11    1
    45    45    48    1
    46    45    46   ar
    47    28    33   ar
    48    28    35    1
    49    24    25    1
    50    24    27    1
    51    36    35    1
    52    41    46   ar
    53    41    49    1
    54    11    12    1
    55    11    13    1
    56    11    14    1
    57    50    49    1
