@<TRIPOS>MOLECULE
mol_data/opt/m06hf/geoms/mol2/6gi6gi-6gi-.out
 41 43 0 0 0
SMALL
GASTEIGER

@<TRIPOS>ATOM
      1 C          -4.0459   -1.7470   -1.4519 C.ar    1  LIG1        0.0946
      2 C          -2.9507   -2.0634   -0.6433 C.ar    1  LIG1       -0.0297
      3 C          -2.6734   -1.2174    0.4171 C.ar    1  LIG1       -0.0543
      4 C          -3.4459   -0.0759    0.6500 C.ar    1  LIG1       -0.0243
      5 C          -4.4928    0.1583   -0.2486 C.ar    1  LIG1        0.0777
      6 N          -4.7856   -0.6677   -1.2568 N.ar    1  LIG1       -0.2404
      7 H          -1.8507   -1.4462    1.0847 H       1  LIG1        0.0622
      8 H          -2.3515   -2.9436   -0.8296 H       1  LIG1        0.0644
      9 S          -4.5811   -2.7314   -2.8325 S.3     1  LIG1       -0.1234
     10 H          -3.7246   -3.7380   -2.6345 H       1  LIG1        0.1086
     11 C          -3.1592    0.8207    1.8402 C.3     1  LIG1       -0.0377
     12 H          -4.0740    1.2917    2.1972 H       1  LIG1        0.0278
     13 H          -2.4475    1.6052    1.5749 H       1  LIG1        0.0278
     14 H          -2.7284    0.2280    2.6469 H       1  LIG1        0.0278
     15 C          -6.7459    1.3181    0.0737 C.ar    1  LIG1        0.1038
     16 C          -5.3564    1.3739   -0.1292 C.ar    1  LIG1        0.0325
     17 C          -4.7767    2.6359   -0.1878 C.ar    1  LIG1       -0.0451
     18 C          -5.5306    3.7979   -0.0321 C.ar    1  LIG1       -0.0237
     19 C          -6.9014    3.6177    0.1825 C.ar    1  LIG1        0.0777
     20 N          -7.4737    2.4147    0.2336 N.ar    1  LIG1       -0.2397
     21 H          -3.7066    2.7117   -0.3494 H       1  LIG1        0.0628
     22 S          -7.6929   -0.1754    0.2353 S.3     1  LIG1       -0.1227
     23 H          -6.8224   -0.9723   -0.3952 H       1  LIG1        0.1086
     24 C          -4.8721    5.1641   -0.0542 C.3     1  LIG1       -0.0377
     25 H          -5.3565    5.8311    0.6583 H       1  LIG1        0.0278
     26 H          -4.9375    5.6143   -1.0464 H       1  LIG1        0.0278
     27 H          -3.8187    5.0669    0.2081 H       1  LIG1        0.0278
     28 C          -8.5314    5.0351    1.5418 C.ar    1  LIG1        0.1031
     29 C          -7.8118    4.7929    0.3578 C.ar    1  LIG1        0.0325
     30 C          -7.9547    5.7090   -0.6780 C.ar    1  LIG1       -0.0457
     31 C          -8.7529    6.8416   -0.5259 C.ar    1  LIG1       -0.0317
     32 C          -9.3695    6.9981    0.7113 C.ar    1  LIG1        0.0318
     33 N          -9.2707    6.1222    1.7085 N.ar    1  LIG1       -0.2481
     34 H          -7.4371    5.5307   -1.6153 H       1  LIG1        0.0628
     35 H          -9.9863    7.8683    0.9084 H       1  LIG1        0.0832
     36 S          -8.4933    3.9659    2.9655 S.3     1  LIG1       -0.1228
     37 H          -8.2419    2.8455    2.2808 H       1  LIG1        0.1086
     38 C          -8.9435    7.8415   -1.6478 C.3     1  LIG1       -0.0383
     39 H          -9.5101    8.7031   -1.2962 H       1  LIG1        0.0278
     40 H          -9.4878    7.3822   -2.4743 H       1  LIG1        0.0278
     41 H          -7.9783    8.1872   -2.0201 H       1  LIG1        0.0278
@<TRIPOS>BOND
     1     9    10    1
     2     9     1    1
     3    40    38    1
     4    41    38    1
     5    38    39    1
     6    38    31    1
     7    34    30    1
     8     1     6   ar
     9     1     2   ar
    10     6     5   ar
    11    26    24    1
    12     8     2    1
    13    30    31   ar
    14    30    29   ar
    15     2     3   ar
    16    31    32   ar
    17    23    22    1
    18    21    17    1
    19     5    16    1
    20     5     4   ar
    21    17    16   ar
    22    17    18   ar
    23    16    15   ar
    24    24    18    1
    25    24    27    1
    26    24    25    1
    27    18    19   ar
    28    15    20   ar
    29    15    22    1
    30    19    20   ar
    31    19    29    1
    32    29    28   ar
    33     3     4   ar
    34     3     7    1
    35     4    11    1
    36    32    35    1
    37    32    33   ar
    38    28    33   ar
    39    28    36    1
    40    13    11    1
    41    11    12    1
    42    11    14    1
    43    37    36    1
