@<TRIPOS>MOLECULE
mol_data/opt/m06hf/geoms/mol2/6gi6gi6gi-.out
 41 43 0 0 0
SMALL
GASTEIGER

@<TRIPOS>ATOM
      1 C          -4.1413   -1.7724   -1.4544 C.ar    1  LIG1        0.0946
      2 C          -3.0382   -2.1105   -0.6647 C.ar    1  LIG1       -0.0297
      3 C          -2.7198   -1.2654    0.3850 C.ar    1  LIG1       -0.0543
      4 C          -3.4616   -0.1054    0.6263 C.ar    1  LIG1       -0.0243
      5 C          -4.5200    0.1476   -0.2526 C.ar    1  LIG1        0.0777
      6 N          -4.8509   -0.6742   -1.2522 N.ar    1  LIG1       -0.2404
      7 H          -1.8900   -1.5098    1.0378 H       1  LIG1        0.0622
      8 H          -2.4655   -3.0071   -0.8557 H       1  LIG1        0.0644
      9 S          -4.7371   -2.7589   -2.8077 S.3     1  LIG1       -0.1234
     10 H          -3.8946   -3.7809   -2.6261 H       1  LIG1        0.1086
     11 C          -3.1346    0.7943    1.8030 C.3     1  LIG1       -0.0377
     12 H          -4.0367    1.2690    2.1871 H       1  LIG1        0.0278
     13 H          -2.4305    1.5765    1.5123 H       1  LIG1        0.0278
     14 H          -2.6802    0.2039    2.5984 H       1  LIG1        0.0278
     15 C          -6.7370    1.3400    0.1568 C.ar    1  LIG1        0.1038
     16 C          -5.3597    1.3784   -0.1171 C.ar    1  LIG1        0.0325
     17 C          -4.7711    2.6321   -0.2321 C.ar    1  LIG1       -0.0451
     18 C          -5.5089    3.8037   -0.0703 C.ar    1  LIG1       -0.0237
     19 C          -6.8688    3.6409    0.2128 C.ar    1  LIG1        0.0777
     20 N          -7.4490    2.4455    0.3252 N.ar    1  LIG1       -0.2397
     21 H          -3.7088    2.6932   -0.4436 H       1  LIG1        0.0628
     22 S          -7.6803   -0.1456    0.4014 S.3     1  LIG1       -0.1227
     23 H          -6.8524   -0.9582   -0.2656 H       1  LIG1        0.1086
     24 C          -4.8477    5.1660   -0.1586 C.3     1  LIG1       -0.0377
     25 H          -5.2828    5.8467    0.5726 H       1  LIG1        0.0278
     26 H          -4.9778    5.6000   -1.1518 H       1  LIG1        0.0278
     27 H          -3.7797    5.0690    0.0354 H       1  LIG1        0.0278
     28 C          -8.3909    5.1353    1.6124 C.ar    1  LIG1        0.1031
     29 C          -7.7600    4.8298    0.3936 C.ar    1  LIG1        0.0325
     30 C          -7.9708    5.6960   -0.6727 C.ar    1  LIG1       -0.0457
     31 C          -8.7511    6.8410   -0.5192 C.ar    1  LIG1       -0.0317
     32 C          -9.2764    7.0624    0.7499 C.ar    1  LIG1        0.0318
     33 N          -9.1111    6.2346    1.7791 N.ar    1  LIG1       -0.2481
     34 H          -7.5201    5.4694   -1.6338 H       1  LIG1        0.0628
     35 H          -9.8724    7.9469    0.9479 H       1  LIG1        0.0832
     36 S          -8.2479    4.1331    3.0773 S.3     1  LIG1       -0.1228
     37 H          -8.0633    2.9793    2.4278 H       1  LIG1        0.1086
     38 C          -9.0194    7.7858   -1.6723 C.3     1  LIG1       -0.0383
     39 H          -9.5080    8.6920   -1.3158 H       1  LIG1        0.0278
     40 H          -9.6687    7.3082   -2.4078 H       1  LIG1        0.0278
     41 H          -8.0865    8.0630   -2.1647 H       1  LIG1        0.0278
@<TRIPOS>BOND
     1     9    10    1
     2     9     1    1
     3    40    38    1
     4    41    38    1
     5    38    39    1
     6    38    31    1
     7    34    30    1
     8     1     6   ar
     9     1     2   ar
    10     6     5   ar
    11    26    24    1
    12     8     2    1
    13    30    31   ar
    14    30    29   ar
    15     2     3   ar
    16    31    32   ar
    17    21    17    1
    18    23    22    1
    19     5    16    1
    20     5     4   ar
    21    17    16   ar
    22    17    18   ar
    23    24    18    1
    24    24    27    1
    25    24    25    1
    26    16    15   ar
    27    18    19   ar
    28    15    20   ar
    29    15    22    1
    30    19    20   ar
    31    19    29    1
    32     3     4   ar
    33     3     7    1
    34    29    28   ar
    35     4    11    1
    36    32    35    1
    37    32    33   ar
    38    13    11    1
    39    28    33   ar
    40    28    36    1
    41    11    12    1
    42    11    14    1
    43    37    36    1
