@<TRIPOS>MOLECULE
mol_data/opt/m06hf/geoms/mol2/6gi6gi6gi.out
 41 43 0 0 0
SMALL
GASTEIGER

@<TRIPOS>ATOM
      1 C          -4.0448   -1.7272   -1.4742 C.ar    1  LIG1        0.0946
      2 C          -2.9643   -2.0672   -0.6551 C.ar    1  LIG1       -0.0297
      3 C          -2.6896   -1.2374    0.4189 C.ar    1  LIG1       -0.0543
      4 C          -3.4521   -0.0899    0.6562 C.ar    1  LIG1       -0.0243
      5 C          -4.4846    0.1669   -0.2522 C.ar    1  LIG1        0.0777
      6 N          -4.7731   -0.6407   -1.2758 N.ar    1  LIG1       -0.2404
      7 H          -1.8788   -1.4843    1.0941 H       1  LIG1        0.0622
      8 H          -2.3757   -2.9542   -0.8427 H       1  LIG1        0.0644
      9 S          -4.5854   -2.6959   -2.8634 S.3     1  LIG1       -0.1234
     10 H          -3.7333   -3.7090   -2.6757 H       1  LIG1        0.1086
     11 C          -3.1725    0.7921    1.8585 C.3     1  LIG1       -0.0377
     12 H          -4.0908    1.2533    2.2201 H       1  LIG1        0.0278
     13 H          -2.4654    1.5844    1.6049 H       1  LIG1        0.0278
     14 H          -2.7402    0.1915    2.6585 H       1  LIG1        0.0278
     15 C          -6.7282    1.3281    0.1018 C.ar    1  LIG1        0.1038
     16 C          -5.3424    1.3861   -0.1235 C.ar    1  LIG1        0.0325
     17 C          -4.7639    2.6478   -0.1959 C.ar    1  LIG1       -0.0451
     18 C          -5.5198    3.8086   -0.0388 C.ar    1  LIG1       -0.0237
     19 C          -6.8867    3.6264    0.1948 C.ar    1  LIG1        0.0777
     20 N          -7.4577    2.4231    0.2653 N.ar    1  LIG1       -0.2397
     21 H          -3.6957    2.7238   -0.3697 H       1  LIG1        0.0628
     22 S          -7.6612   -0.1732    0.2850 S.3     1  LIG1       -0.1227
     23 H          -6.7989   -0.9638   -0.3647 H       1  LIG1        0.1086
     24 C          -4.8707    5.1793   -0.0814 C.3     1  LIG1       -0.0377
     25 H          -5.3427    5.8451    0.6408 H       1  LIG1        0.0278
     26 H          -4.9654    5.6255   -1.0730 H       1  LIG1        0.0278
     27 H          -3.8104    5.0908    0.1545 H       1  LIG1        0.0278
     28 C          -8.4714    5.0803    1.5659 C.ar    1  LIG1        0.1031
     29 C          -7.7959    4.8032    0.3646 C.ar    1  LIG1        0.0325
     30 C          -7.9784    5.6864   -0.6929 C.ar    1  LIG1       -0.0457
     31 C          -8.7755    6.8207   -0.5464 C.ar    1  LIG1       -0.0317
     32 C          -9.3470    7.0139    0.7075 C.ar    1  LIG1        0.0318
     33 N          -9.2085    6.1694    1.7270 N.ar    1  LIG1       -0.2481
     34 H          -7.4920    5.4819   -1.6415 H       1  LIG1        0.0628
     35 H          -9.9585    7.8888    0.9002 H       1  LIG1        0.0832
     36 S          -8.3666    4.0541    3.0169 S.3     1  LIG1       -0.1228
     37 H          -8.1480    2.9136    2.3544 H       1  LIG1        0.1086
     38 C          -9.0134    7.7837   -1.6913 C.3     1  LIG1       -0.0383
     39 H          -9.5216    8.6793   -1.3356 H       1  LIG1        0.0278
     40 H          -9.6334    7.3139   -2.4565 H       1  LIG1        0.0278
     41 H          -8.0670    8.0771   -2.1470 H       1  LIG1        0.0278
@<TRIPOS>BOND
     1     9    10    1
     2     9     1    1
     3    40    38    1
     4    41    38    1
     5    38    39    1
     6    38    31    1
     7    34    30    1
     8     1     6   ar
     9     1     2   ar
    10     6     5   ar
    11    26    24    1
    12     8     2    1
    13    30    31   ar
    14    30    29   ar
    15     2     3   ar
    16    31    32   ar
    17    21    17    1
    18    23    22    1
    19     5    16    1
    20     5     4   ar
    21    17    16   ar
    22    17    18   ar
    23    16    15   ar
    24    24    18    1
    25    24    27    1
    26    24    25    1
    27    18    19   ar
    28    15    20   ar
    29    15    22    1
    30    19    20   ar
    31    19    29    1
    32    29    28   ar
    33     3     4   ar
    34     3     7    1
    35     4    11    1
    36    32    35    1
    37    32    33   ar
    38    28    33   ar
    39    28    36    1
    40    13    11    1
    41    11    12    1
    42    11    14    1
    43    37    36    1
