@<TRIPOS>MOLECULE
mol_data/opt/m06hf/geoms/mol2/6gi6gi.out
 28 29 0 0 0
SMALL
GASTEIGER

@<TRIPOS>ATOM
      1 C          -4.3142   -1.7080   -1.1874 C.ar    1  LIG1        0.0946
      2 C          -3.1627   -2.0642   -0.4827 C.ar    1  LIG1       -0.0297
      3 C          -2.6900   -1.1761    0.4728 C.ar    1  LIG1       -0.0543
      4 C          -3.3550    0.0246    0.7186 C.ar    1  LIG1       -0.0243
      5 C          -4.5069    0.2646   -0.0417 C.ar    1  LIG1        0.0777
      6 N          -4.9652   -0.5733   -0.9711 N.ar    1  LIG1       -0.2404
      7 H          -1.7928   -1.4149    1.0315 H       1  LIG1        0.0622
      8 H          -2.6530   -2.9975   -0.6768 H       1  LIG1        0.0644
      9 S          -5.0568   -2.7206   -2.4479 S.3     1  LIG1       -0.1234
     10 H          -4.1567   -3.7066   -2.3881 H       1  LIG1        0.1086
     11 C          -2.8628    1.0213    1.7484 C.3     1  LIG1       -0.0377
     12 H          -3.5495    1.0608    2.5965 H       1  LIG1        0.0278
     13 H          -2.8031    2.0188    1.3116 H       1  LIG1        0.0278
     14 H          -1.8757    0.7299    2.1057 H       1  LIG1        0.0278
     15 C          -6.1335    1.7403    1.2410 C.ar    1  LIG1        0.1031
     16 C          -5.2844    1.5309    0.1445 C.ar    1  LIG1        0.0325
     17 C          -5.1763    2.5548   -0.7885 C.ar    1  LIG1       -0.0457
     18 C          -5.8599    3.7558   -0.6050 C.ar    1  LIG1       -0.0317
     19 C          -6.6386    3.8565    0.5453 C.ar    1  LIG1        0.0318
     20 N          -6.7821    2.8783    1.4359 N.ar    1  LIG1       -0.2481
     21 H          -4.5475    2.4058   -1.6599 H       1  LIG1        0.0628
     22 H          -7.1849    4.7693    0.7556 H       1  LIG1        0.0832
     23 S          -6.4484    0.5167    2.4964 S.3     1  LIG1       -0.1228
     24 H          -5.9411   -0.5211    1.8207 H       1  LIG1        0.1086
     25 C          -5.7662    4.8885   -1.6065 C.3     1  LIG1       -0.0383
     26 H          -6.2832    5.7710   -1.2314 H       1  LIG1        0.0278
     27 H          -6.2222    4.5941   -2.5527 H       1  LIG1        0.0278
     28 H          -4.7230    5.1475   -1.7923 H       1  LIG1        0.0278
@<TRIPOS>BOND
     1    27    25    1
     2     9    10    1
     3     9     1    1
     4    28    25    1
     5    21    17    1
     6    25    26    1
     7    25    18    1
     8     1     6   ar
     9     1     2   ar
    10     6     5   ar
    11    17    18   ar
    12    17    16   ar
    13     8     2    1
    14    18    19   ar
    15     2     3   ar
    16     5    16    1
    17     5     4   ar
    18    16    15   ar
    19     3     4   ar
    20     3     7    1
    21    19    22    1
    22    19    20   ar
    23     4    11    1
    24    15    20   ar
    25    15    23    1
    26    13    11    1
    27    11    14    1
    28    11    12    1
    29    24    23    1
