@<TRIPOS>MOLECULE
mol_data/opt/m06hf/geoms/mol2/6gi6gi-6gi.out
 41 43 0 0 0
SMALL
GASTEIGER

@<TRIPOS>ATOM
      1 C          -4.0535   -1.7521   -1.4466 C.ar    1  LIG1        0.0946
      2 C          -2.9554   -2.0668   -0.6411 C.ar    1  LIG1       -0.0297
      3 C          -2.6733   -1.2176    0.4156 C.ar    1  LIG1       -0.0543
      4 C          -3.4440   -0.0748    0.6476 C.ar    1  LIG1       -0.0243
      5 C          -4.4941    0.1574   -0.2478 C.ar    1  LIG1        0.0777
      6 N          -4.7917   -0.6716   -1.2520 N.ar    1  LIG1       -0.2404
      7 H          -1.8482   -1.4448    1.0807 H       1  LIG1        0.0622
      8 H          -2.3578   -2.9482   -0.8265 H       1  LIG1        0.0644
      9 S          -4.5956   -2.7417   -2.8206 S.3     1  LIG1       -0.1234
     10 H          -3.7407   -3.7494   -2.6211 H       1  LIG1        0.1086
     11 C          -3.1526    0.8260    1.8336 C.3     1  LIG1       -0.0377
     12 H          -4.0661    1.2986    2.1920 H       1  LIG1        0.0278
     13 H          -2.4417    1.6094    1.5629 H       1  LIG1        0.0278
     14 H          -2.7192    0.2361    2.6409 H       1  LIG1        0.0278
     15 C          -6.7442    1.3191    0.0843 C.ar    1  LIG1        0.1038
     16 C          -5.3563    1.3740   -0.1284 C.ar    1  LIG1        0.0325
     17 C          -4.7769    2.6356   -0.1966 C.ar    1  LIG1       -0.0451
     18 C          -5.5300    3.7982   -0.0414 C.ar    1  LIG1       -0.0237
     19 C          -6.8994    3.6189    0.1827 C.ar    1  LIG1        0.0777
     20 N          -7.4712    2.4163    0.2437 N.ar    1  LIG1       -0.2397
     21 H          -3.7078    2.7105   -0.3654 H       1  LIG1        0.0628
     22 S          -7.6894   -0.1737    0.2601 S.3     1  LIG1       -0.1227
     23 H          -6.8253   -0.9731   -0.3761 H       1  LIG1        0.1086
     24 C          -4.8725    5.1649   -0.0748 C.3     1  LIG1       -0.0377
     25 H          -5.3514    5.8341    0.6393 H       1  LIG1        0.0278
     26 H          -4.9468    5.6110   -1.0681 H       1  LIG1        0.0278
     27 H          -3.8169    5.0694    0.1790 H       1  LIG1        0.0278
     28 C          -8.5170    5.0469    1.5453 C.ar    1  LIG1        0.1031
     29 C          -7.8086    4.7952    0.3567 C.ar    1  LIG1        0.0325
     30 C          -7.9602    5.7036   -0.6847 C.ar    1  LIG1       -0.0457
     31 C          -8.7566    6.8378   -0.5338 C.ar    1  LIG1       -0.0317
     32 C          -9.3622    7.0036    0.7077 C.ar    1  LIG1        0.0318
     33 N          -9.2548    6.1351    1.7103 N.ar    1  LIG1       -0.2481
     34 H          -7.4504    5.5185   -1.6249 H       1  LIG1        0.0628
     35 H          -9.9772    7.8754    0.9038 H       1  LIG1        0.0832
     36 S          -8.4639    3.9895    2.9770 S.3     1  LIG1       -0.1228
     37 H          -8.2212    2.8629    2.2992 H       1  LIG1        0.1086
     38 C          -8.9563    7.8299   -1.6612 C.3     1  LIG1       -0.0383
     39 H          -9.5212    8.6933   -1.3112 H       1  LIG1        0.0278
     40 H          -9.5062    7.3645   -2.4805 H       1  LIG1        0.0278
     41 H          -7.9941    8.1741   -2.0427 H       1  LIG1        0.0278
@<TRIPOS>BOND
     1     9    10    1
     2     9     1    1
     3    40    38    1
     4    41    38    1
     5    38    39    1
     6    38    31    1
     7    34    30    1
     8     1     6   ar
     9     1     2   ar
    10     6     5   ar
    11    26    24    1
    12     8     2    1
    13    30    31   ar
    14    30    29   ar
    15     2     3   ar
    16    31    32   ar
    17    23    22    1
    18    21    17    1
    19     5    16    1
    20     5     4   ar
    21    17    16   ar
    22    17    18   ar
    23    16    15   ar
    24    24    18    1
    25    24    27    1
    26    24    25    1
    27    18    19   ar
    28    15    20   ar
    29    15    22    1
    30    19    20   ar
    31    19    29    1
    32    29    28   ar
    33     3     4   ar
    34     3     7    1
    35     4    11    1
    36    32    35    1
    37    32    33   ar
    38    28    33   ar
    39    28    36    1
    40    13    11    1
    41    11    12    1
    42    11    14    1
    43    37    36    1
