@<TRIPOS>MOLECULE
mol_data/opt/m06hf/geoms/mol2/6gi6gi6gi-6gi-.out
 54 57 0 0 0
SMALL
GASTEIGER

@<TRIPOS>ATOM
      1 C          -3.3984   -1.3894   -1.8143 C.ar    1  LIG1        0.0946
      2 C          -2.7264   -2.0155   -0.7608 C.ar    1  LIG1       -0.0297
      3 C          -2.9442   -1.5288    0.5170 C.ar    1  LIG1       -0.0543
      4 C          -3.7917   -0.4392    0.7388 C.ar    1  LIG1       -0.0243
      5 C          -4.3855    0.1242   -0.3958 C.ar    1  LIG1        0.0777
      6 N          -4.1991   -0.3528   -1.6296 N.ar    1  LIG1       -0.2404
      7 H          -2.4625   -2.0061    1.3621 H       1  LIG1        0.0622
      8 H          -2.0772   -2.8621   -0.9346 H       1  LIG1        0.0644
      9 S          -3.2921   -1.9077   -3.5111 S.3     1  LIG1       -0.1234
     10 H          -2.3838   -2.8680   -3.3137 H       1  LIG1        0.1086
     11 C          -4.0562    0.0595    2.1471 C.3     1  LIG1       -0.0377
     12 H          -5.0606    0.4724    2.2286 H       1  LIG1        0.0278
     13 H          -3.3404    0.8350    2.4267 H       1  LIG1        0.0278
     14 H          -3.9558   -0.7666    2.8507 H       1  LIG1        0.0278
     15 C          -6.6182    1.3299   -0.7034 C.ar    1  LIG1        0.1038
     16 C          -5.2733    1.3248   -0.2937 C.ar    1  LIG1        0.0325
     17 C          -4.7719    2.5028    0.2454 C.ar    1  LIG1       -0.0451
     18 C          -5.5653    3.6411    0.3866 C.ar    1  LIG1       -0.0237
     19 C          -6.8878    3.5242   -0.0514 C.ar    1  LIG1        0.0777
     20 N          -7.3869    2.4011   -0.5696 N.ar    1  LIG1       -0.2397
     21 H          -3.7366    2.5305    0.5688 H       1  LIG1        0.0628
     22 S          -7.4779   -0.0767   -1.3668 S.3     1  LIG1       -0.1227
     23 H          -6.3824   -0.7486   -1.7302 H       1  LIG1        0.1086
     24 C          -5.0104    4.9054    1.0144 C.3     1  LIG1       -0.0377
     25 H          -5.7764    5.4091    1.6032 H       1  LIG1        0.0278
     26 H          -4.6532    5.5979    0.2499 H       1  LIG1        0.0278
     27 H          -4.1727    4.6535    1.6644 H       1  LIG1        0.0278
     28 C          -8.9699    4.6911    0.8440 C.ar    1  LIG1        0.1038
     29 C          -7.8242    4.6883    0.0321 C.ar    1  LIG1        0.0325
     30 C          -7.5457    5.8503   -0.6778 C.ar    1  LIG1       -0.0451
     31 C          -8.3555    6.9797   -0.5700 C.ar    1  LIG1       -0.0237
     32 C          -9.4528    6.8721    0.2894 C.ar    1  LIG1        0.0777
     33 N          -9.7416    5.7617    0.9694 N.ar    1  LIG1       -0.2397
     34 H          -6.6713    5.8762   -1.3194 H       1  LIG1        0.0628
     35 S          -9.4793    3.3212    1.8567 S.3     1  LIG1       -0.1227
     36 H          -8.9080    2.3740    1.1055 H       1  LIG1        0.1086
     37 C          -8.0317    8.2592   -1.3152 C.3     1  LIG1       -0.0377
     38 H          -8.2053    9.1245   -0.6751 H       1  LIG1        0.0278
     39 H          -8.6572    8.3604   -2.2041 H       1  LIG1        0.0278
     40 H          -6.9878    8.2505   -1.6277 H       1  LIG1        0.0278
     41 C         -10.4324    8.7576    1.6885 C.ar    1  LIG1        0.1031
     42 C         -10.3801    8.0305    0.4872 C.ar    1  LIG1        0.0325
     43 C         -11.2115    8.4408   -0.5475 C.ar    1  LIG1       -0.0457
     44 C         -12.0466    9.5470   -0.3950 C.ar    1  LIG1       -0.0317
     45 C         -11.9832   10.2039    0.8300 C.ar    1  LIG1        0.0318
     46 N         -11.2073    9.8207    1.8416 N.ar    1  LIG1       -0.2481
     47 H         -11.2054    7.8870   -1.4811 H       1  LIG1        0.0628
     48 H         -12.5916   11.0835    1.0103 H       1  LIG1        0.0832
     49 S          -9.4313    8.3915    3.1130 S.3     1  LIG1       -0.1228
     50 H          -9.1685    7.1235    2.7819 H       1  LIG1        0.1086
     51 C         -12.9788   10.0026   -1.4983 C.3     1  LIG1       -0.0383
     52 H         -13.4227   10.9655   -1.2479 H       1  LIG1        0.0278
     53 H         -13.7811    9.2768   -1.6391 H       1  LIG1        0.0278
     54 H         -12.4372   10.1037   -2.4396 H       1  LIG1        0.0278
@<TRIPOS>BOND
     1     9    10    1
     2     9     1    1
     3    54    51    1
     4    39    37    1
     5     1     6   ar
     6     1     2   ar
     7    23    22    1
     8    53    51    1
     9     6     5   ar
    10    40    37    1
    11    51    52    1
    12    51    44    1
    13    47    43    1
    14    22    15    1
    15    34    30    1
    16    37    38    1
    17    37    31    1
    18     8     2    1
    19     2     3   ar
    20    15    20   ar
    21    15    16   ar
    22    30    31   ar
    23    30    29   ar
    24    31    32   ar
    25    20    19   ar
    26    43    44   ar
    27    43    42   ar
    28     5    16    1
    29     5     4   ar
    30    44    45   ar
    31    16    17   ar
    32    19    29    1
    33    19    18   ar
    34    29    28   ar
    35    17    18   ar
    36    17    21    1
    37    26    24    1
    38    32    42    1
    39    32    33   ar
    40    18    24    1
    41    42    41   ar
    42     3     4   ar
    43     3     7    1
    44     4    11    1
    45    45    48    1
    46    45    46   ar
    47    28    33   ar
    48    28    35    1
    49    24    25    1
    50    24    27    1
    51    36    35    1
    52    41    46   ar
    53    41    49    1
    54    11    12    1
    55    11    13    1
    56    11    14    1
    57    50    49    1
