@<TRIPOS>MOLECULE
mol_data/opt/m06hf/geoms/mol2/6gl.out
 16 16 0 0 0
SMALL
GASTEIGER

@<TRIPOS>ATOM
      1 C          -4.5955   -2.0390    0.0001 C.ar    1  LIG1        0.0942
      2 C          -3.2059   -2.1044    0.0000 C.ar    1  LIG1       -0.0266
      3 C          -2.4773   -0.9167   -0.0002 C.ar    1  LIG1       -0.0159
      4 C          -3.1706    0.2890   -0.0003 C.ar    1  LIG1        0.1382
      5 C          -4.5699    0.2441   -0.0002 C.ar    1  LIG1        0.0704
      6 N          -5.2576   -0.8854   -0.0001 N.ar    1  LIG1       -0.2454
      7 H          -1.3965   -0.9514   -0.0002 H       1  LIG1        0.0655
      8 H          -2.6930   -3.0556    0.0001 H       1  LIG1        0.0645
      9 H          -5.1227    1.1752   -0.0003 H       1  LIG1        0.0867
     10 S          -5.6569   -3.4724    0.0003 S.3     1  LIG1       -0.1234
     11 H          -4.6723   -4.3781    0.0004 H       1  LIG1        0.1086
     12 O          -2.6088    1.5213   -0.0004 O.3     1  LIG1       -0.4936
     13 C          -1.1960    1.5988   -0.0005 C.3     1  LIG1        0.0789
     14 H          -0.9557    2.6581   -0.0006 H       1  LIG1        0.0660
     15 H          -0.7833    1.1264    0.8951 H       1  LIG1        0.0660
     16 H          -0.7833    1.1262   -0.8960 H       1  LIG1        0.0660
@<TRIPOS>BOND
     1    16    13    1
     2    14    13    1
     3    13    12    1
     4    13    15    1
     5    12     4    1
     6     9     5    1
     7     4     5   ar
     8     4     3   ar
     9     5     6   ar
    10     7     3    1
    11     3     2   ar
    12     6     1   ar
    13     2     1   ar
    14     2     8    1
    15     1    10    1
    16    10    11    1
