@<TRIPOS>MOLECULE
mol_data/opt/m06hf/geoms/mol2/6gl6gl-6gl-6gl.out
 58 61 0 0 0
SMALL
GASTEIGER

@<TRIPOS>ATOM
      1 C          -4.1017   -2.2737   -0.0659 C.ar    1  LIG1        0.0949
      2 C          -2.7273   -2.1911   -0.2696 C.ar    1  LIG1       -0.0265
      3 C          -2.1618   -0.9351   -0.4536 C.ar    1  LIG1       -0.0153
      4 C          -2.9745    0.1956   -0.4164 C.ar    1  LIG1        0.1461
      5 C          -4.3532    0.0146   -0.2007 C.ar    1  LIG1        0.1163
      6 N          -4.8734   -1.1951   -0.0352 N.ar    1  LIG1       -0.2370
      7 H          -1.0977   -0.8491   -0.6234 H       1  LIG1        0.0656
      8 H          -2.1086   -3.0772   -0.2878 H       1  LIG1        0.0645
      9 S          -4.9961   -3.7900    0.1874 S.3     1  LIG1       -0.1234
     10 H          -3.9603   -4.6072   -0.0276 H       1  LIG1        0.1086
     11 O          -2.5271    1.4630   -0.5783 O.3     1  LIG1       -0.4930
     12 C          -1.1858    1.6473   -1.0008 C.3     1  LIG1        0.0789
     13 H          -1.0732    2.7149   -1.1653 H       1  LIG1        0.0660
     14 H          -0.4867    1.3169   -0.2288 H       1  LIG1        0.0660
     15 H          -1.0026    1.1072   -1.9325 H       1  LIG1        0.0660
     16 C          -6.4956    1.2450   -0.8346 C.ar    1  LIG1        0.1042
     17 C          -5.2827    1.1818   -0.1371 C.ar    1  LIG1        0.0391
     18 C          -4.9525    2.2635    0.6792 C.ar    1  LIG1       -0.0060
     19 C          -5.7925    3.3653    0.7688 C.ar    1  LIG1        0.1467
     20 C          -6.9714    3.3643   -0.0038 C.ar    1  LIG1        0.1164
     21 N          -7.2732    2.3191   -0.7624 N.ar    1  LIG1       -0.2363
     22 H          -4.0257    2.2262    1.2339 H       1  LIG1        0.0662
     23 S          -7.1383    0.0011   -1.9339 S.3     1  LIG1       -0.1227
     24 H          -6.5637   -1.0352   -1.3118 H       1  LIG1        0.1086
     25 O          -5.5405    4.4353    1.5631 O.3     1  LIG1       -0.4929
     26 C          -4.4723    4.3416    2.4911 C.3     1  LIG1        0.0789
     27 H          -4.5197    5.2507    3.0842 H       1  LIG1        0.0660
     28 H          -4.6027    3.4700    3.1359 H       1  LIG1        0.0660
     29 H          -3.5118    4.2870    1.9729 H       1  LIG1        0.0660
     30 C          -9.3252    4.3723   -0.0044 C.ar    1  LIG1        0.1042
     31 C          -7.9271    4.5117    0.0125 C.ar    1  LIG1        0.0391
     32 C          -7.4174    5.8117    0.0620 C.ar    1  LIG1       -0.0060
     33 C          -8.2635    6.9075    0.1381 C.ar    1  LIG1        0.1467
     34 C          -9.6502    6.6716    0.1542 C.ar    1  LIG1        0.1164
     35 N         -10.1210    5.4361    0.0705 N.ar    1  LIG1       -0.2363
     36 H          -6.3463    5.9447    0.0656 H       1  LIG1        0.0662
     37 S         -10.2613    2.8622   -0.0439 S.3     1  LIG1       -0.1227
     38 H          -9.2790    2.0845   -0.5157 H       1  LIG1        0.1086
     39 O          -7.8250    8.1901    0.2185 O.3     1  LIG1       -0.4929
     40 C          -6.4461    8.3974    0.4680 C.3     1  LIG1        0.0789
     41 H          -6.3365    9.4622    0.6547 H       1  LIG1        0.0660
     42 H          -6.1286    7.8284    1.3461 H       1  LIG1        0.0660
     43 H          -5.8462    8.1105   -0.3993 H       1  LIG1        0.0660
     44 C         -11.7533    7.7823    1.0895 C.ar    1  LIG1        0.1034
     45 C         -10.6325    7.7941    0.2464 C.ar    1  LIG1        0.0390
     46 C         -10.4238    8.9221   -0.5568 C.ar    1  LIG1       -0.0066
     47 C         -11.2986    9.9935   -0.4741 C.ar    1  LIG1        0.1388
     48 C         -12.3650    9.8965    0.4239 C.ar    1  LIG1        0.0705
     49 N         -12.5794    8.8271    1.1671 N.ar    1  LIG1       -0.2447
     50 H          -9.5686    8.9386   -1.2165 H       1  LIG1        0.0662
     51 H         -13.0547   10.7268    0.5185 H       1  LIG1        0.0867
     52 S         -12.2124    6.4810    2.2144 S.3     1  LIG1       -0.1228
     53 H         -11.5823    5.4972    1.5653 H       1  LIG1        0.1086
     54 O         -11.2043   11.1435   -1.1878 O.3     1  LIG1       -0.4936
     55 C         -10.0954   11.2795   -2.0549 C.3     1  LIG1        0.0789
     56 H         -10.1815   12.2687   -2.4959 H       1  LIG1        0.0660
     57 H          -9.1581   11.2006   -1.4969 H       1  LIG1        0.0660
     58 H         -10.1236   10.5206   -2.8413 H       1  LIG1        0.0660
@<TRIPOS>BOND
     1    58    55    1
     2    56    55    1
     3    55    57    1
     4    55    54    1
     5    23    24    1
     6    23    16    1
     7    15    12    1
     8    50    46    1
     9    54    47    1
    10    13    12    1
    11    12    11    1
    12    12    14    1
    13    16    21   ar
    14    16    17   ar
    15    21    20   ar
    16     7     3    1
    17    11     4    1
    18    46    47   ar
    19    46    45   ar
    20    38    37    1
    21    47    48   ar
    22     3     4   ar
    23     3     2   ar
    24     4     5   ar
    25    43    40    1
    26     8     2    1
    27     2     1   ar
    28     5    17    1
    29     5     6   ar
    30    17    18   ar
    31     1     6   ar
    32     1     9    1
    33    37    30    1
    34    10     9    1
    35    30    31   ar
    36    30    35   ar
    37    20    31    1
    38    20    19   ar
    39    31    32   ar
    40    32    36    1
    41    32    33   ar
    42    35    34   ar
    43    33    34   ar
    44    33    39    1
    45    34    45    1
    46    39    40    1
    47    45    44   ar
    48    48    51    1
    49    48    49   ar
    50    40    41    1
    51    40    42    1
    52    18    19   ar
    53    18    22    1
    54    19    25    1
    55    44    49   ar
    56    44    52    1
    57    25    26    1
    58    53    52    1
    59    29    26    1
    60    26    27    1
    61    26    28    1
