@<TRIPOS>MOLECULE
mol_data/opt/m06hf/geoms/mol2/6gl6gl6gl.out
 44 46 0 0 0
SMALL
GASTEIGER

@<TRIPOS>ATOM
      1 C          -4.0848   -1.8593   -1.4816 C.ar    1  LIG1        0.0949
      2 C          -2.8834   -2.0906   -0.8191 C.ar    1  LIG1       -0.0265
      3 C          -2.4535   -1.1523    0.1116 C.ar    1  LIG1       -0.0153
      4 C          -3.2188   -0.0112    0.3403 C.ar    1  LIG1        0.1461
      5 C          -4.4145    0.1443   -0.3873 C.ar    1  LIG1        0.1163
      6 N          -4.8104   -0.7704   -1.2643 N.ar    1  LIG1       -0.2370
      7 H          -1.5296   -1.3180    0.6481 H       1  LIG1        0.0656
      8 H          -2.2953   -2.9761   -1.0155 H       1  LIG1        0.0645
      9 S          -4.7960   -2.9569   -2.6890 S.3     1  LIG1       -0.1234
     10 H          -3.9517   -3.9697   -2.4751 H       1  LIG1        0.1086
     11 O          -2.8899    0.9601    1.2232 O.3     1  LIG1       -0.4930
     12 C          -1.8277    0.7110    2.1296 C.3     1  LIG1        0.0789
     13 H          -1.8192    1.5576    2.8101 H       1  LIG1        0.0660
     14 H          -2.0098   -0.2111    2.6857 H       1  LIG1        0.0660
     15 H          -0.8727    0.6519    1.6018 H       1  LIG1        0.0660
     16 C          -6.6693    1.2771   -0.0070 C.ar    1  LIG1        0.1042
     17 C          -5.2821    1.3445   -0.1939 C.ar    1  LIG1        0.0391
     18 C          -4.6892    2.6083   -0.1889 C.ar    1  LIG1       -0.0060
     19 C          -5.4565    3.7450    0.0231 C.ar    1  LIG1        0.1467
     20 C          -6.8363    3.5781    0.2441 C.ar    1  LIG1        0.1164
     21 N          -7.3885    2.3736    0.2135 N.ar    1  LIG1       -0.2363
     22 H          -3.6200    2.6763   -0.3282 H       1  LIG1        0.0662
     23 S          -7.6508   -0.2067    0.0642 S.3     1  LIG1       -0.1227
     24 H          -6.8370   -0.9555   -0.6865 H       1  LIG1        0.1086
     25 O          -4.9555    5.0039    0.0480 O.3     1  LIG1       -0.4929
     26 C          -3.5487    5.1554   -0.0209 C.3     1  LIG1        0.0789
     27 H          -3.3608    6.2191    0.0944 H       1  LIG1        0.0660
     28 H          -3.0645    4.6020    0.7880 H       1  LIG1        0.0660
     29 H          -3.1691    4.8144   -0.9875 H       1  LIG1        0.0660
     30 C          -8.6417    4.8066    1.5619 C.ar    1  LIG1        0.1034
     31 C          -7.7238    4.7517    0.5048 C.ar    1  LIG1        0.0390
     32 C          -7.6337    5.8544   -0.3515 C.ar    1  LIG1       -0.0066
     33 C          -8.4259    6.9674   -0.1162 C.ar    1  LIG1        0.1388
     34 C          -9.2830    6.9367    0.9876 C.ar    1  LIG1        0.0705
     35 N          -9.3853    5.8904    1.7865 N.ar    1  LIG1       -0.2447
     36 H          -6.9321    5.8196   -1.1729 H       1  LIG1        0.0662
     37 H          -9.8991    7.8016    1.2024 H       1  LIG1        0.0867
     38 S          -8.8960    3.5337    2.7823 S.3     1  LIG1       -0.1228
     39 H          -8.5231    2.5150    1.9992 H       1  LIG1        0.1086
     40 O          -8.4342    8.0984   -0.8645 O.3     1  LIG1       -0.4936
     41 C          -7.5748    8.1410   -1.9872 C.3     1  LIG1        0.0789
     42 H          -7.7303    9.1142   -2.4446 H       1  LIG1        0.0660
     43 H          -6.5307    8.0395   -1.6783 H       1  LIG1        0.0660
     44 H          -7.8299    7.3518   -2.6992 H       1  LIG1        0.0660
@<TRIPOS>BOND
     1    44    41    1
     2     9    10    1
     3     9     1    1
     4    42    41    1
     5    41    43    1
     6    41    40    1
     7     1     6   ar
     8     1     2   ar
     9     6     5   ar
    10    36    32    1
    11     8     2    1
    12    29    26    1
    13    40    33    1
    14     2     3   ar
    15    24    23    1
    16     5    17    1
    17     5     4   ar
    18    32    33   ar
    19    32    31   ar
    20    22    18    1
    21    17    18   ar
    22    17    16   ar
    23    18    19   ar
    24    33    34   ar
    25    26    25    1
    26    26    27    1
    27    26    28    1
    28    16    23    1
    29    16    21   ar
    30    19    25    1
    31    19    20   ar
    32     3     4   ar
    33     3     7    1
    34    21    20   ar
    35    20    31    1
    36     4    11    1
    37    31    30   ar
    38    34    37    1
    39    34    35   ar
    40    11    12    1
    41    30    35   ar
    42    30    38    1
    43    15    12    1
    44    39    38    1
    45    12    14    1
    46    12    13    1
