@<TRIPOS>MOLECULE
mol_data/opt/m06hf/geoms/mol2/6gl6gl-6gl-.out
 44 46 0 0 0
SMALL
GASTEIGER

@<TRIPOS>ATOM
      1 C          -4.2581   -2.2227    0.2996 C.ar    1  LIG1        0.0949
      2 C          -2.9018   -2.1880   -0.0072 C.ar    1  LIG1       -0.0265
      3 C          -2.3329   -0.9630   -0.3342 C.ar    1  LIG1       -0.0153
      4 C          -3.1218    0.1848   -0.3323 C.ar    1  LIG1        0.1461
      5 C          -4.4844    0.0560    0.0035 C.ar    1  LIG1        0.1163
      6 N          -5.0061   -1.1274    0.3036 N.ar    1  LIG1       -0.2370
      7 H          -1.2833   -0.9160   -0.5883 H       1  LIG1        0.0656
      8 H          -2.2988   -3.0849    0.0060 H       1  LIG1        0.0645
      9 S          -5.1494   -3.7001    0.7372 S.3     1  LIG1       -0.1234
     10 H          -4.1786   -4.5506    0.3910 H       1  LIG1        0.1086
     11 O          -2.6614    1.4205   -0.6393 O.3     1  LIG1       -0.4930
     12 C          -1.3209    1.5424   -1.0845 C.3     1  LIG1        0.0789
     13 H          -1.1852    2.5937   -1.3215 H       1  LIG1        0.0660
     14 H          -0.6236    1.2468   -0.2967 H       1  LIG1        0.0660
     15 H          -1.1589    0.9370   -1.9795 H       1  LIG1        0.0660
     16 C          -6.6805    1.2537   -0.5132 C.ar    1  LIG1        0.1042
     17 C          -5.3905    1.2433    0.0360 C.ar    1  LIG1        0.0391
     18 C          -4.9475    2.4119    0.6596 C.ar    1  LIG1       -0.0060
     19 C          -5.7502    3.5432    0.6920 C.ar    1  LIG1        0.1467
     20 C          -7.0141    3.4749    0.0770 C.ar    1  LIG1        0.1164
     21 N          -7.4300    2.3518   -0.4891 N.ar    1  LIG1       -0.2363
     22 H          -3.9623    2.4184    1.1023 H       1  LIG1        0.0662
     23 S          -7.4870   -0.0857   -1.3635 S.3     1  LIG1       -0.1227
     24 H          -6.8155   -1.0685   -0.7566 H       1  LIG1        0.1086
     25 O          -5.3914    4.7110    1.2796 O.3     1  LIG1       -0.4929
     26 C          -4.1833    4.7373    2.0185 C.3     1  LIG1        0.0789
     27 H          -4.1234    5.7335    2.4470 H       1  LIG1        0.0660
     28 H          -4.2056    3.9909    2.8161 H       1  LIG1        0.0660
     29 H          -3.3249    4.5618    1.3646 H       1  LIG1        0.0660
     30 C          -9.2902    4.5914    0.3599 C.ar    1  LIG1        0.1034
     31 C          -7.9263    4.6572    0.0423 C.ar    1  LIG1        0.0390
     32 C          -7.3912    5.8964   -0.3282 C.ar    1  LIG1       -0.0066
     33 C          -8.2079    7.0160   -0.3422 C.ar    1  LIG1        0.1388
     34 C          -9.5458    6.8519    0.0283 C.ar    1  LIG1        0.0705
     35 N         -10.0592    5.6817    0.3582 N.ar    1  LIG1       -0.2447
     36 H          -6.3415    5.9550   -0.5786 H       1  LIG1        0.0662
     37 H         -10.1997    7.7153    0.0423 H       1  LIG1        0.0867
     38 S         -10.1731    3.1373    0.8871 S.3     1  LIG1       -0.1228
     39 H          -9.3916    2.2537    0.2547 H       1  LIG1        0.1086
     40 O          -7.8182    8.2708   -0.6800 O.3     1  LIG1       -0.4936
     41 C          -6.4588    8.4597   -1.0194 C.3     1  LIG1        0.0789
     42 H          -6.3491    9.5195   -1.2327 H       1  LIG1        0.0660
     43 H          -5.8104    8.1797   -0.1844 H       1  LIG1        0.0660
     44 H          -6.1964    7.8753   -1.9051 H       1  LIG1        0.0660
@<TRIPOS>BOND
     1    15    12    1
     2    44    41    1
     3    23    24    1
     4    23    16    1
     5    13    12    1
     6    42    41    1
     7    12    11    1
     8    12    14    1
     9    41    40    1
    10    41    43    1
    11    40    33    1
    12    11     4    1
    13     7     3    1
    14    36    32    1
    15    16    21   ar
    16    16    17   ar
    17    21    20   ar
    18    33    32   ar
    19    33    34   ar
    20     3     4   ar
    21     3     2   ar
    22     4     5   ar
    23    32    31   ar
    24     2     8    1
    25     2     1   ar
    26     5    17    1
    27     5     6   ar
    28    34    37    1
    29    34    35   ar
    30    17    18   ar
    31    31    20    1
    32    31    30   ar
    33    20    19   ar
    34    39    38    1
    35     1     6   ar
    36     1     9    1
    37    35    30   ar
    38    30    38    1
    39    10     9    1
    40    18    19   ar
    41    18    22    1
    42    19    25    1
    43    25    26    1
    44    29    26    1
    45    26    27    1
    46    26    28    1
