@<TRIPOS>MOLECULE
mol_data/opt/m06hf/geoms/mol2/6gl6gl-6gl-6gl-.out
 58 61 0 0 0
SMALL
GASTEIGER

@<TRIPOS>ATOM
      1 C          -4.1083   -2.2763   -0.0680 C.ar    1  LIG1        0.0949
      2 C          -2.7337   -2.1949   -0.2708 C.ar    1  LIG1       -0.0265
      3 C          -2.1670   -0.9392   -0.4532 C.ar    1  LIG1       -0.0153
      4 C          -2.9786    0.1922   -0.4153 C.ar    1  LIG1        0.1461
      5 C          -4.3575    0.0123   -0.2007 C.ar    1  LIG1        0.1163
      6 N          -4.8790   -1.1970   -0.0366 N.ar    1  LIG1       -0.2370
      7 H          -1.1027   -0.8541   -0.6222 H       1  LIG1        0.0656
      8 H          -2.1159   -3.0816   -0.2895 H       1  LIG1        0.0645
      9 S          -5.0044   -3.7921    0.1832 S.3     1  LIG1       -0.1234
     10 H          -3.9692   -4.6101   -0.0317 H       1  LIG1        0.1086
     11 O          -2.5300    1.4593   -0.5757 O.3     1  LIG1       -0.4930
     12 C          -1.1882    1.6428   -0.9974 C.3     1  LIG1        0.0789
     13 H          -1.0746    2.7104   -1.1608 H       1  LIG1        0.0660
     14 H          -0.4898    1.3110   -0.2254 H       1  LIG1        0.0660
     15 H          -1.0050    1.1033   -1.9295 H       1  LIG1        0.0660
     16 C          -6.4983    1.2455   -0.8347 C.ar    1  LIG1        0.1042
     17 C          -5.2860    1.1803   -0.1364 C.ar    1  LIG1        0.0391
     18 C          -4.9553    2.2609    0.6813 C.ar    1  LIG1       -0.0060
     19 C          -5.7944    3.3634    0.7715 C.ar    1  LIG1        0.1467
     20 C          -6.9727    3.3644   -0.0019 C.ar    1  LIG1        0.1164
     21 N          -7.2749    2.3203   -0.7619 N.ar    1  LIG1       -0.2363
     22 H          -4.0289    2.2220    1.2365 H       1  LIG1        0.0662
     23 S          -7.1414    0.0035   -1.9359 S.3     1  LIG1       -0.1227
     24 H          -6.5682   -1.0340   -1.3146 H       1  LIG1        0.1086
     25 O          -5.5417    4.4322    1.5671 O.3     1  LIG1       -0.4929
     26 C          -4.4747    4.3362    2.4962 C.3     1  LIG1        0.0789
     27 H          -4.5218    5.2446    3.0904 H       1  LIG1        0.0660
     28 H          -4.6067    3.4639    3.1397 H       1  LIG1        0.0660
     29 H          -3.5137    4.2814    1.9789 H       1  LIG1        0.0660
     30 C          -9.3254    4.3749   -0.0030 C.ar    1  LIG1        0.1042
     31 C          -7.9272    4.5127    0.0148 C.ar    1  LIG1        0.0391
     32 C          -7.4161    5.8121    0.0659 C.ar    1  LIG1       -0.0060
     33 C          -8.2611    6.9088    0.1425 C.ar    1  LIG1        0.1467
     34 C          -9.6480    6.6744    0.1576 C.ar    1  LIG1        0.1164
     35 N         -10.1202    5.4394    0.0723 N.ar    1  LIG1       -0.2363
     36 H          -6.3448    5.9440    0.0702 H       1  LIG1        0.0662
     37 S         -10.2631    2.8658   -0.0446 S.3     1  LIG1       -0.1227
     38 H          -9.2813    2.0875   -0.5162 H       1  LIG1        0.1086
     39 O          -7.8212    8.1908    0.2243 O.3     1  LIG1       -0.4929
     40 C          -6.4422    8.3964    0.4749 C.3     1  LIG1        0.0789
     41 H          -6.3316    9.4608    0.6628 H       1  LIG1        0.0660
     42 H          -6.1260    7.8260    1.3526 H       1  LIG1        0.0660
     43 H          -5.8421    8.1097   -0.3923 H       1  LIG1        0.0660
     44 C         -11.7506    7.7865    1.0923 C.ar    1  LIG1        0.1034
     45 C         -10.6292    7.7979    0.2501 C.ar    1  LIG1        0.0390
     46 C         -10.4185    8.9264   -0.5517 C.ar    1  LIG1       -0.0066
     47 C         -11.2922    9.9988   -0.4686 C.ar    1  LIG1        0.1388
     48 C         -12.3594    9.9020    0.4284 C.ar    1  LIG1        0.0705
     49 N         -12.5756    8.8321    1.1702 N.ar    1  LIG1       -0.2447
     50 H          -9.5626    8.9427   -1.2106 H       1  LIG1        0.0662
     51 H         -13.0482   10.7330    0.5232 H       1  LIG1        0.0867
     52 S         -12.2121    6.4845    2.2154 S.3     1  LIG1       -0.1228
     53 H         -11.5827    5.5006    1.5657 H       1  LIG1        0.1086
     54 O         -11.1959   11.1494   -1.1809 O.3     1  LIG1       -0.4936
     55 C         -10.0862   11.2850   -2.0470 C.3     1  LIG1        0.0789
     56 H         -10.1708   12.2748   -2.4871 H       1  LIG1        0.0660
     57 H          -9.1494   11.2045   -1.4884 H       1  LIG1        0.0660
     58 H         -10.1145   10.5270   -2.8343 H       1  LIG1        0.0660
@<TRIPOS>BOND
     1    58    55    1
     2    56    55    1
     3    55    57    1
     4    55    54    1
     5    23    24    1
     6    23    16    1
     7    15    12    1
     8    50    46    1
     9    54    47    1
    10    13    12    1
    11    12    11    1
    12    12    14    1
    13    16    21   ar
    14    16    17   ar
    15    21    20   ar
    16     7     3    1
    17    11     4    1
    18    46    47   ar
    19    46    45   ar
    20    38    37    1
    21    47    48   ar
    22     3     4   ar
    23     3     2   ar
    24     4     5   ar
    25    43    40    1
    26     8     2    1
    27     2     1   ar
    28     5    17    1
    29     5     6   ar
    30    17    18   ar
    31     1     6   ar
    32     1     9    1
    33    37    30    1
    34    10     9    1
    35    30    31   ar
    36    30    35   ar
    37    20    31    1
    38    20    19   ar
    39    31    32   ar
    40    32    36    1
    41    32    33   ar
    42    35    34   ar
    43    33    34   ar
    44    33    39    1
    45    34    45    1
    46    39    40    1
    47    45    44   ar
    48    48    51    1
    49    48    49   ar
    50    40    41    1
    51    40    42    1
    52    18    19   ar
    53    18    22    1
    54    19    25    1
    55    44    49   ar
    56    44    52    1
    57    53    52    1
    58    25    26    1
    59    29    26    1
    60    26    27    1
    61    26    28    1
