@<TRIPOS>MOLECULE
mol_data/opt/m06hf/geoms/mol2/6gl6gl-6gl6gl.out
 58 61 0 0 0
SMALL
GASTEIGER

@<TRIPOS>ATOM
      1 C          -3.9812   -2.1912    0.7390 C.ar    1  LIG1        0.0949
      2 C          -2.6632   -2.1482    0.2939 C.ar    1  LIG1       -0.0265
      3 C          -2.1857   -0.9561   -0.2364 C.ar    1  LIG1       -0.0153
      4 C          -3.0237    0.1553   -0.2925 C.ar    1  LIG1        0.1461
      5 C          -4.3392    0.0206    0.1894 C.ar    1  LIG1        0.1163
      6 N          -4.7764   -1.1313    0.6834 N.ar    1  LIG1       -0.2370
      7 H          -1.1686   -0.9024   -0.5989 H       1  LIG1        0.0656
      8 H          -2.0218   -3.0160    0.3555 H       1  LIG1        0.0645
      9 S          -4.7585   -3.6293    1.4426 S.3     1  LIG1       -0.1234
     10 H          -3.7959   -4.4905    1.1009 H       1  LIG1        0.1086
     11 O          -2.6550    1.3603   -0.7866 O.3     1  LIG1       -0.4930
     12 C          -1.4198    1.4511   -1.4778 C.3     1  LIG1        0.0789
     13 H          -1.3788    2.4619   -1.8732 H       1  LIG1        0.0660
     14 H          -0.5809    1.2867   -0.7976 H       1  LIG1        0.0660
     15 H          -1.3881    0.7302   -2.2980 H       1  LIG1        0.0660
     16 C          -6.6110    1.0700   -0.3096 C.ar    1  LIG1        0.1042
     17 C          -5.2930    1.1698    0.1583 C.ar    1  LIG1        0.0391
     18 C          -4.8688    2.4135    0.6280 C.ar    1  LIG1       -0.0060
     19 C          -5.7198    3.5098    0.5924 C.ar    1  LIG1        0.1467
     20 C          -7.0100    3.3282    0.0611 C.ar    1  LIG1        0.1164
     21 N          -7.4042    2.1347   -0.3587 N.ar    1  LIG1       -0.2363
     22 H          -3.8621    2.5075    1.0098 H       1  LIG1        0.0662
     23 S          -7.4001   -0.3900   -0.9504 S.3     1  LIG1       -0.1227
     24 H          -6.6518   -1.2641   -0.2705 H       1  LIG1        0.1086
     25 O          -5.3805    4.7443    1.0387 O.3     1  LIG1       -0.4929
     26 C          -4.1792    4.8779    1.7795 C.3     1  LIG1        0.0789
     27 H          -4.1602    5.9077    2.1246 H       1  LIG1        0.0660
     28 H          -4.1817    4.1986    2.6351 H       1  LIG1        0.0660
     29 H          -3.3092    4.6834    1.1475 H       1  LIG1        0.0660
     30 C          -9.3380    4.3578    0.2878 C.ar    1  LIG1        0.1042
     31 C          -7.9782    4.4599   -0.0440 C.ar    1  LIG1        0.0391
     32 C          -7.5219    5.6935   -0.5137 C.ar    1  LIG1       -0.0060
     33 C          -8.3818    6.7787   -0.6015 C.ar    1  LIG1        0.1467
     34 C          -9.7176    6.5984   -0.1975 C.ar    1  LIG1        0.1164
     35 N         -10.1421    5.4147    0.2196 N.ar    1  LIG1       -0.2363
     36 H          -6.4831    5.7868   -0.7954 H       1  LIG1        0.0662
     37 S         -10.1781    2.9088    0.8879 S.3     1  LIG1       -0.1227
     38 H          -9.3593    2.0249    0.3059 H       1  LIG1        0.1086
     39 O          -8.0111    8.0024   -1.0545 O.3     1  LIG1       -0.4929
     40 C          -6.7233    8.1337   -1.6298 C.3     1  LIG1        0.0789
     41 H          -6.6674    9.1553   -1.9951 H       1  LIG1        0.0660
     42 H          -5.9443    7.9639   -0.8818 H       1  LIG1        0.0660
     43 H          -6.6030    7.4345   -2.4605 H       1  LIG1        0.0660
     44 C         -11.9950    7.6128   -0.7491 C.ar    1  LIG1        0.1034
     45 C         -10.6977    7.7255   -0.2287 C.ar    1  LIG1        0.0390
     46 C         -10.2988    8.9628    0.2891 C.ar    1  LIG1       -0.0066
     47 C         -11.1719   10.0378    0.2434 C.ar    1  LIG1        0.1388
     48 C         -12.4290    9.8325   -0.3320 C.ar    1  LIG1        0.0705
     49 N         -12.8183    8.6615   -0.8003 N.ar    1  LIG1       -0.2447
     50 H          -9.3042    9.0587    0.7001 H       1  LIG1        0.0662
     51 H         -13.1239   10.6613   -0.3959 H       1  LIG1        0.0867
     52 S         -12.7100    6.1544   -1.4783 S.3     1  LIG1       -0.1228
     53 H         -11.9535    5.2735   -0.8154 H       1  LIG1        0.1086
     54 O         -10.9053   11.2859    0.7054 O.3     1  LIG1       -0.4936
     55 C          -9.6274   11.5072    1.2683 C.3     1  LIG1        0.0789
     56 H          -9.6062   12.5535    1.5601 H       1  LIG1        0.0660
     57 H          -9.4772   10.8754    2.1477 H       1  LIG1        0.0660
     58 H          -8.8426   11.3107    0.5322 H       1  LIG1        0.0660
@<TRIPOS>BOND
     1    43    40    1
     2    15    12    1
     3    41    40    1
     4    13    12    1
     5    40    39    1
     6    40    42    1
     7    52    53    1
     8    52    44    1
     9    12    14    1
    10    12    11    1
    11    39    33    1
    12    23    16    1
    13    23    24    1
    14    49    44   ar
    15    49    48   ar
    16    36    32    1
    17    11     4    1
    18    44    45   ar
    19    33    32   ar
    20    33    34   ar
    21     7     3    1
    22    32    31   ar
    23    51    48    1
    24    21    16   ar
    25    21    20   ar
    26    48    47   ar
    27    16    17   ar
    28     4     3   ar
    29     4     5   ar
    30     3     2   ar
    31    45    34    1
    32    45    46   ar
    33    34    35   ar
    34    31    20    1
    35    31    30   ar
    36    20    19   ar
    37    17     5    1
    38    17    18   ar
    39     5     6   ar
    40    35    30   ar
    41    47    46   ar
    42    47    54    1
    43    30    37    1
    44    46    50    1
    45     2     8    1
    46     2     1   ar
    47    38    37    1
    48    58    55    1
    49    19    18   ar
    50    19    25    1
    51    18    22    1
    52     6     1   ar
    53    54    55    1
    54     1     9    1
    55    25    26    1
    56    10     9    1
    57    29    26    1
    58    55    56    1
    59    55    57    1
    60    26    27    1
    61    26    28    1
