@<TRIPOS>MOLECULE
mol_data/opt/m06hf/geoms/mol2/6gl6gl-6gl6gl-.out
 58 61 0 0 0
SMALL
GASTEIGER

@<TRIPOS>ATOM
      1 C          -3.9909   -2.1968    0.7289 C.ar    1  LIG1        0.0949
      2 C          -2.6691   -2.1520    0.2954 C.ar    1  LIG1       -0.0265
      3 C          -2.1865   -0.9572   -0.2240 C.ar    1  LIG1       -0.0153
      4 C          -3.0233    0.1549   -0.2810 C.ar    1  LIG1        0.1461
      5 C          -4.3429    0.0183    0.1889 C.ar    1  LIG1        0.1163
      6 N          -4.7850   -1.1361    0.6726 N.ar    1  LIG1       -0.2370
      7 H          -1.1663   -0.9020   -0.5775 H       1  LIG1        0.0656
      8 H          -2.0287   -3.0205    0.3576 H       1  LIG1        0.0645
      9 S          -4.7750   -3.6383    1.4177 S.3     1  LIG1       -0.1234
     10 H          -3.8100   -4.4981    1.0795 H       1  LIG1        0.1086
     11 O          -2.6498    1.3626   -0.7650 O.3     1  LIG1       -0.4930
     12 C          -1.4083    1.4568   -1.4445 C.3     1  LIG1        0.0789
     13 H          -1.3631    2.4698   -1.8333 H       1  LIG1        0.0660
     14 H          -0.5757    1.2877   -0.7577 H       1  LIG1        0.0660
     15 H          -1.3696    0.7408   -2.2687 H       1  LIG1        0.0660
     16 C          -6.6099    1.0717   -0.3237 C.ar    1  LIG1        0.1042
     17 C          -5.2959    1.1682    0.1561 C.ar    1  LIG1        0.0391
     18 C          -4.8752    2.4091    0.6365 C.ar    1  LIG1       -0.0060
     19 C          -5.7253    3.5059    0.5997 C.ar    1  LIG1        0.1467
     20 C          -7.0110    3.3280    0.0562 C.ar    1  LIG1        0.1164
     21 N          -7.4021    2.1371   -0.3737 N.ar    1  LIG1       -0.2363
     22 H          -3.8718    2.5004    1.0275 H       1  LIG1        0.0662
     23 S          -7.3940   -0.3841   -0.9797 S.3     1  LIG1       -0.1227
     24 H          -6.6522   -1.2626   -0.2984 H       1  LIG1        0.1086
     25 O          -5.3894    4.7378    1.0559 O.3     1  LIG1       -0.4929
     26 C          -4.1946    4.8665    1.8080 C.3     1  LIG1        0.0789
     27 H          -4.1782    5.8943    2.1593 H       1  LIG1        0.0660
     28 H          -4.2049    4.1823    2.6597 H       1  LIG1        0.0660
     29 H          -3.3192    4.6752    1.1827 H       1  LIG1        0.0660
     30 C          -9.3404    4.3575    0.2687 C.ar    1  LIG1        0.1042
     31 C          -7.9778    4.4608   -0.0508 C.ar    1  LIG1        0.0391
     32 C          -7.5168    5.6967   -0.5096 C.ar    1  LIG1       -0.0060
     33 C          -8.3755    6.7828   -0.5987 C.ar    1  LIG1        0.1467
     34 C          -9.7148    6.6010   -0.2072 C.ar    1  LIG1        0.1164
     35 N         -10.1434    5.4151    0.1995 N.ar    1  LIG1       -0.2363
     36 H          -6.4756    5.7912   -0.7817 H       1  LIG1        0.0662
     37 S         -10.1863    2.9056    0.8534 S.3     1  LIG1       -0.1227
     38 H          -9.3629    2.0245    0.2736 H       1  LIG1        0.1086
     39 O          -8.0003    8.0089   -1.0417 O.3     1  LIG1       -0.4929
     40 C          -6.7078    8.1427   -1.6057 C.3     1  LIG1        0.0789
     41 H          -6.6485    9.1661   -1.9651 H       1  LIG1        0.0660
     42 H          -5.9350    7.9684   -0.8524 H       1  LIG1        0.0660
     43 H          -6.5811    7.4479   -2.4392 H       1  LIG1        0.0660
     44 C         -11.9868    7.6197   -0.7729 C.ar    1  LIG1        0.1034
     45 C         -10.6941    7.7287   -0.2406 C.ar    1  LIG1        0.0390
     46 C         -10.2990    8.9629    0.2874 C.ar    1  LIG1       -0.0066
     47 C         -11.1711   10.0387    0.2402 C.ar    1  LIG1        0.1388
     48 C         -12.4233    9.8373   -0.3472 C.ar    1  LIG1        0.0705
     49 N         -12.8091    8.6692   -0.8255 N.ar    1  LIG1       -0.2447
     50 H          -9.3079    9.0560    0.7076 H       1  LIG1        0.0662
     51 H         -13.1171   10.6668   -0.4127 H       1  LIG1        0.0867
     52 S         -12.6963    6.1657   -1.5163 S.3     1  LIG1       -0.1228
     53 H         -11.9459    5.2809   -0.8518 H       1  LIG1        0.1086
     54 O         -10.9079   11.2840    0.7115 O.3     1  LIG1       -0.4936
     55 C          -9.6348   11.5014    1.2868 C.3     1  LIG1        0.0789
     56 H          -9.6157   12.5460    1.5847 H       1  LIG1        0.0660
     57 H          -9.4927   10.8645    2.1639 H       1  LIG1        0.0660
     58 H          -8.8438   11.3086    0.5565 H       1  LIG1        0.0660
@<TRIPOS>BOND
     1    43    40    1
     2    15    12    1
     3    41    40    1
     4    13    12    1
     5    40    39    1
     6    40    42    1
     7    52    53    1
     8    52    44    1
     9    12    11    1
    10    12    14    1
    11    39    33    1
    12    23    16    1
    13    23    24    1
    14    49    44   ar
    15    49    48   ar
    16    36    32    1
    17    44    45   ar
    18    11     4    1
    19    33    32   ar
    20    33    34   ar
    21     7     3    1
    22    32    31   ar
    23    51    48    1
    24    21    16   ar
    25    21    20   ar
    26    48    47   ar
    27    16    17   ar
    28     4     3   ar
    29     4     5   ar
    30    45    34    1
    31    45    46   ar
    32     3     2   ar
    33    34    35   ar
    34    31    20    1
    35    31    30   ar
    36    20    19   ar
    37    17     5    1
    38    17    18   ar
    39     5     6   ar
    40    35    30   ar
    41    47    46   ar
    42    47    54    1
    43    30    37    1
    44    38    37    1
    45    46    50    1
    46     2     8    1
    47     2     1   ar
    48    58    55    1
    49    19    18   ar
    50    19    25    1
    51    18    22    1
    52     6     1   ar
    53    54    55    1
    54     1     9    1
    55    25    26    1
    56    10     9    1
    57    29    26    1
    58    55    56    1
    59    55    57    1
    60    26    27    1
    61    26    28    1
