@<TRIPOS>MOLECULE
mol_data/opt/m06hf/geoms/mol2/6gl6gl6gl-6gl-.out
 58 61 0 0 0
SMALL
GASTEIGER

@<TRIPOS>ATOM
      1 C          -3.9789   -2.1917   -0.7242 C.ar    1  LIG1        0.0949
      2 C          -2.6644   -2.1499   -0.2690 C.ar    1  LIG1       -0.0265
      3 C          -2.1903   -0.9588    0.2665 C.ar    1  LIG1       -0.0153
      4 C          -3.0282    0.1530    0.3177 C.ar    1  LIG1        0.1461
      5 C          -4.3400    0.0196   -0.1744 C.ar    1  LIG1        0.1163
      6 N          -4.7741   -1.1314   -0.6733 N.ar    1  LIG1       -0.2370
      7 H          -1.1760   -0.9060    0.6369 H       1  LIG1        0.0656
      8 H          -2.0229   -3.0179   -0.3269 H       1  LIG1        0.0645
      9 S          -4.7516   -3.6283   -1.4358 S.3     1  LIG1       -0.1234
     10 H          -3.7921   -4.4905   -1.0880 H       1  LIG1        0.1086
     11 O          -2.6627    1.3572    0.8162 O.3     1  LIG1       -0.4930
     12 C          -1.4327    1.4464    1.5169 C.3     1  LIG1        0.0789
     13 H          -1.3942    2.4566    1.9139 H       1  LIG1        0.0660
     14 H          -1.4076    0.7245    2.3364 H       1  LIG1        0.0660
     15 H          -0.5888    1.2825    0.8428 H       1  LIG1        0.0660
     16 C          -6.6151    1.0694    0.3087 C.ar    1  LIG1        0.1042
     17 C          -5.2935    1.1692   -0.1490 C.ar    1  LIG1        0.0391
     18 C          -4.8650    2.4134   -0.6137 C.ar    1  LIG1       -0.0060
     19 C          -5.7158    3.5100   -0.5831 C.ar    1  LIG1        0.1467
     20 C          -7.0100    3.3283   -0.0618 C.ar    1  LIG1        0.1164
     21 N          -7.4081    2.1345    0.3533 N.ar    1  LIG1       -0.2363
     22 H          -3.8555    2.5075   -0.9877 H       1  LIG1        0.0662
     23 S          -7.4097   -0.3910    0.9414 S.3     1  LIG1       -0.1227
     24 H          -6.6567   -1.2646    0.2659 H       1  LIG1        0.1086
     25 O          -5.3725    4.7450   -1.0251 O.3     1  LIG1       -0.4929
     26 C          -4.1656    4.8790   -1.7565 C.3     1  LIG1        0.0789
     27 H          -4.1434    5.9093   -2.1001 H       1  LIG1        0.0660
     28 H          -3.3005    4.6832   -1.1183 H       1  LIG1        0.0660
     29 H          -4.1619    4.2009   -2.6130 H       1  LIG1        0.0660
     30 C          -9.3357    4.3596   -0.3049 C.ar    1  LIG1        0.1042
     31 C          -7.9785    4.4605    0.0375 C.ar    1  LIG1        0.0391
     32 C          -7.5251    5.6931    0.5125 C.ar    1  LIG1       -0.0060
     33 C          -8.3851    6.7786    0.5954 C.ar    1  LIG1        0.1467
     34 C          -9.7178    6.5997    0.1810 C.ar    1  LIG1        0.1164
     35 N         -10.1398    5.4168   -0.2411 N.ar    1  LIG1       -0.2363
     36 H          -6.4884    5.7854    0.8022 H       1  LIG1        0.0662
     37 S         -10.1720    2.9121   -0.9136 S.3     1  LIG1       -0.1227
     38 H          -9.3582    2.0267   -0.3269 H       1  LIG1        0.1086
     39 O          -8.0172    8.0014    1.0532 O.3     1  LIG1       -0.4929
     40 C          -6.7338    8.1311    1.6384 C.3     1  LIG1        0.0789
     41 H          -6.6801    9.1521    2.0058 H       1  LIG1        0.0660
     42 H          -6.6202    7.4305    2.4689 H       1  LIG1        0.0660
     43 H          -5.9492    7.9620    0.8961 H       1  LIG1        0.0660
     44 C         -11.9988    7.6143    0.7170 C.ar    1  LIG1        0.1034
     45 C         -10.6976    7.7272    0.2065 C.ar    1  LIG1        0.0390
     46 C         -10.2943    8.9650   -0.3065 C.ar    1  LIG1       -0.0066
     47 C         -11.1672   10.0404   -0.2659 C.ar    1  LIG1        0.1388
     48 C         -12.4287    9.8349    0.2997 C.ar    1  LIG1        0.0705
     49 N         -12.8220    8.6634    0.7635 N.ar    1  LIG1       -0.2447
     50 H          -9.2965    9.0610   -0.7100 H       1  LIG1        0.0662
     51 H         -13.1236   10.6639    0.3597 H       1  LIG1        0.0867
     52 S         -12.7200    6.1552    1.4387 S.3     1  LIG1       -0.1228
     53 H         -11.9590    5.2750    0.7802 H       1  LIG1        0.1086
     54 O         -10.8966   11.2890   -0.7241 O.3     1  LIG1       -0.4936
     55 C          -9.6143   11.5105   -1.2771 C.3     1  LIG1        0.0789
     56 H          -9.5905   12.5572   -1.5672 H       1  LIG1        0.0660
     57 H          -8.8352   11.3125   -0.5353 H       1  LIG1        0.0660
     58 H          -9.4578   10.8799   -2.1562 H       1  LIG1        0.0660
@<TRIPOS>BOND
     1    29    26    1
     2    58    55    1
     3    27    26    1
     4    26    28    1
     5    26    25    1
     6    56    55    1
     7     9    10    1
     8     9     1    1
     9    55    54    1
    10    55    57    1
    11    25    19    1
    12    22    18    1
    13    37    38    1
    14    37    30    1
    15     1     6   ar
    16     1     2   ar
    17    54    47    1
    18    50    46    1
    19     6     5   ar
    20    18    19   ar
    21    18    17   ar
    22    19    20   ar
    23     8     2    1
    24    46    47   ar
    25    46    45   ar
    26    30    35   ar
    27    30    31   ar
    28     2     3   ar
    29    47    48   ar
    30    35    34   ar
    31     5    17    1
    32     5     4   ar
    33    17    16   ar
    34    20    31    1
    35    20    21   ar
    36    31    32   ar
    37    34    45    1
    38    34    33   ar
    39    45    44   ar
    40    24    23    1
    41     3     4   ar
    42     3     7    1
    43    48    51    1
    44    48    49   ar
    45    16    21   ar
    46    16    23    1
    47     4    11    1
    48    32    33   ar
    49    32    36    1
    50    33    39    1
    51    44    49   ar
    52    44    52    1
    53    53    52    1
    54    11    12    1
    55    15    12    1
    56    43    40    1
    57    39    40    1
    58    12    13    1
    59    12    14    1
    60    40    41    1
    61    40    42    1
