@<TRIPOS>MOLECULE
mol_data/opt/m06hf/geoms/mol2/6gl6gl6gl6gl-.out
 58 61 0 0 0
SMALL
GASTEIGER

@<TRIPOS>ATOM
      1 C          -3.7318   -1.9621   -1.2099 C.ar    1  LIG1        0.0949
      2 C          -2.5606   -2.0635   -0.4652 C.ar    1  LIG1       -0.0265
      3 C          -2.2570   -1.0403    0.4242 C.ar    1  LIG1       -0.0153
      4 C          -3.1118    0.0541    0.5343 C.ar    1  LIG1        0.1461
      5 C          -4.2673    0.0782   -0.2710 C.ar    1  LIG1        0.1163
      6 N          -4.5417   -0.9170   -1.1059 N.ar    1  LIG1       -0.2370
      7 H          -1.3587   -1.1051    1.0222 H       1  LIG1        0.0656
      8 H          -1.9010   -2.9137   -0.5678 H       1  LIG1        0.0645
      9 S          -4.2908   -3.1776   -2.3821 S.3     1  LIG1       -0.1234
     10 H          -3.3781   -4.1031   -2.0734 H       1  LIG1        0.1086
     11 O          -2.9020    1.0966    1.3723 O.3     1  LIG1       -0.4930
     12 C          -1.8648    0.9859    2.3339 C.3     1  LIG1        0.0789
     13 H          -1.9459    1.8734    2.9549 H       1  LIG1        0.0660
     14 H          -2.0051    0.0917    2.9449 H       1  LIG1        0.0660
     15 H          -0.8863    0.9630    1.8481 H       1  LIG1        0.0660
     16 C          -6.6203    1.0709   -0.1818 C.ar    1  LIG1        0.1042
     17 C          -5.2265    1.2222   -0.2217 C.ar    1  LIG1        0.0391
     18 C          -4.7209    2.5235   -0.2186 C.ar    1  LIG1       -0.0060
     19 C          -5.5740    3.6158   -0.1505 C.ar    1  LIG1        0.1467
     20 C          -6.9576    3.3689   -0.0845 C.ar    1  LIG1        0.1164
     21 N          -7.4231    2.1284   -0.1097 N.ar    1  LIG1       -0.2363
     22 H          -3.6500    2.6594   -0.2471 H       1  LIG1        0.0662
     23 S          -7.5318   -0.4540   -0.1230 S.3     1  LIG1       -0.1227
     24 H          -6.5661   -1.2301   -0.6245 H       1  LIG1        0.1086
     25 O          -5.1499    4.9038   -0.1315 O.3     1  LIG1       -0.4929
     26 C          -3.7552    5.1371   -0.0371 C.3     1  LIG1        0.0789
     27 H          -3.6414    6.2144    0.0451 H       1  LIG1        0.0660
     28 H          -3.3460    4.6504    0.8515 H       1  LIG1        0.0660
     29 H          -3.2410    4.7778   -0.9320 H       1  LIG1        0.0660
     30 C          -9.0584    4.4840    0.8550 C.ar    1  LIG1        0.1042
     31 C          -7.9471    4.4852   -0.0005 C.ar    1  LIG1        0.0391
     32 C          -7.7780    5.5955   -0.8315 C.ar    1  LIG1       -0.0060
     33 C          -8.6574    6.6668   -0.7682 C.ar    1  LIG1        0.1467
     34 C          -9.7119    6.6031    0.1618 C.ar    1  LIG1        0.1164
     35 N          -9.8767    5.5297    0.9211 N.ar    1  LIG1       -0.2363
     36 H          -6.9406    5.6060   -1.5140 H       1  LIG1        0.0662
     37 S          -9.5181    3.1942    1.9919 S.3     1  LIG1       -0.1227
     38 H          -8.9692    2.1980    1.2862 H       1  LIG1        0.1086
     39 O          -8.5611    7.7715   -1.5486 O.3     1  LIG1       -0.4929
     40 C          -7.6095    7.7619   -2.5977 C.3     1  LIG1        0.0789
     41 H          -7.7585    8.6932   -3.1372 H       1  LIG1        0.0660
     42 H          -6.5923    7.7230   -2.1990 H       1  LIG1        0.0660
     43 H          -7.7830    6.9141   -3.2642 H       1  LIG1        0.0660
     44 C         -12.0645    7.5651    0.4161 C.ar    1  LIG1        0.1034
     45 C         -10.6751    7.7329    0.3258 C.ar    1  LIG1        0.0390
     46 C         -10.1602    9.0328    0.4001 C.ar    1  LIG1       -0.0066
     47 C         -11.0268   10.1063    0.5261 C.ar    1  LIG1        0.1388
     48 C         -12.3973    9.8357    0.5664 C.ar    1  LIG1        0.0705
     49 N         -12.8868    8.6112    0.5194 N.ar    1  LIG1       -0.2447
     50 H          -9.0905    9.1714    0.3377 H       1  LIG1        0.0662
     51 H         -13.0969   10.6591    0.6469 H       1  LIG1        0.0867
     52 S         -12.9500    6.0231    0.3299 S.3     1  LIG1       -0.1228
     53 H         -11.9413    5.2435    0.7348 H       1  LIG1        0.1086
     54 O         -10.6591   11.4102    0.6074 O.3     1  LIG1       -0.4936
     55 C          -9.2755   11.6960    0.5609 C.3     1  LIG1        0.0789
     56 H          -9.1902   12.7768    0.6324 H       1  LIG1        0.0660
     57 H          -8.7558   11.2277    1.4014 H       1  LIG1        0.0660
     58 H          -8.8416   11.3513   -0.3820 H       1  LIG1        0.0660
@<TRIPOS>BOND
     1    43    40    1
     2    41    40    1
     3    40    42    1
     4    40    39    1
     5     9    10    1
     6     9     1    1
     7    39    33    1
     8    36    32    1
     9     1     6   ar
    10     1     2   ar
    11     6     5   ar
    12    29    26    1
    13    32    33   ar
    14    32    31   ar
    15    33    34   ar
    16    24    23    1
    17     8     2    1
    18     2     3   ar
    19    58    55    1
    20     5    17    1
    21     5     4   ar
    22    22    18    1
    23    17    18   ar
    24    17    16   ar
    25    18    19   ar
    26    16    23    1
    27    16    21   ar
    28    19    25    1
    29    19    20   ar
    30    25    26    1
    31    21    20   ar
    32    20    31    1
    33    26    27    1
    34    26    28    1
    35    31    30   ar
    36    34    45    1
    37    34    35   ar
    38    45    46   ar
    39    45    44   ar
    40    52    44    1
    41    52    53    1
    42    50    46    1
    43    46    47   ar
    44    44    49   ar
    45     3     4   ar
    46     3     7    1
    47    49    48   ar
    48    47    48   ar
    49    47    54    1
    50     4    11    1
    51    55    54    1
    52    55    56    1
    53    55    57    1
    54    48    51    1
    55    30    35   ar
    56    30    37    1
    57    38    37    1
    58    11    12    1
    59    15    12    1
    60    12    14    1
    61    12    13    1
