@<TRIPOS>MOLECULE
mol_data/opt/m06hf/geoms/mol2/6gl6gl-.out
 30 31 0 0 0
SMALL
GASTEIGER

@<TRIPOS>ATOM
      1 C          -4.4371   -2.0324    0.7264 C.ar    1  LIG1        0.0949
      2 C          -3.0735   -2.1217    0.4703 C.ar    1  LIG1       -0.0265
      3 C          -2.4264   -1.0012   -0.0388 C.ar    1  LIG1       -0.0153
      4 C          -3.1496    0.1664   -0.2651 C.ar    1  LIG1        0.1461
      5 C          -4.5269    0.1670    0.0336 C.ar    1  LIG1        0.1163
      6 N          -5.1233   -0.9168    0.5139 N.ar    1  LIG1       -0.2370
      7 H          -1.3686   -1.0502   -0.2566 H       1  LIG1        0.0656
      8 H          -2.5252   -3.0345    0.6543 H       1  LIG1        0.0645
      9 S          -5.4374   -3.3635    1.3540 S.3     1  LIG1       -0.1234
     10 H          -4.4680   -4.2835    1.3652 H       1  LIG1        0.1086
     11 O          -2.6139    1.3065   -0.7609 O.3     1  LIG1       -0.4930
     12 C          -1.2773    1.2685   -1.2311 C.3     1  LIG1        0.0789
     13 H          -1.0933    2.2439   -1.6718 H       1  LIG1        0.0660
     14 H          -0.5808    1.0976   -0.4063 H       1  LIG1        0.0660
     15 H          -1.1602    0.4910   -1.9896 H       1  LIG1        0.0660
     16 C          -6.6041    1.3798   -0.8167 C.ar    1  LIG1        0.1034
     17 C          -5.3606    1.3902   -0.1709 C.ar    1  LIG1        0.0390
     18 C          -4.8795    2.6107    0.3175 C.ar    1  LIG1       -0.0066
     19 C          -5.6234    3.7639    0.1269 C.ar    1  LIG1        0.1388
     20 C          -6.8372    3.6513   -0.5587 C.ar    1  LIG1        0.0705
     21 N          -7.3031    2.5001   -1.0042 N.ar    1  LIG1       -0.2447
     22 H          -3.9240    2.6293    0.8221 H       1  LIG1        0.0662
     23 H          -7.4293    4.5413   -0.7328 H       1  LIG1        0.0867
     24 S          -7.3991   -0.0351   -1.5503 S.3     1  LIG1       -0.1228
     25 H          -6.7958   -0.9599   -0.7961 H       1  LIG1        0.1086
     26 O          -5.2729    5.0058    0.5423 O.3     1  LIG1       -0.4936
     27 C          -4.0486    5.1402    1.2376 C.3     1  LIG1        0.0789
     28 H          -3.9567    6.1954    1.4787 H       1  LIG1        0.0660
     29 H          -4.0601    4.5503    2.1578 H       1  LIG1        0.0660
     30 H          -3.2110    4.8294    0.6074 H       1  LIG1        0.0660
@<TRIPOS>BOND
     1    15    12    1
     2    13    12    1
     3    24    16    1
     4    24    25    1
     5    12    11    1
     6    12    14    1
     7    21    16   ar
     8    21    20   ar
     9    16    17   ar
    10    11     4    1
    11    23    20    1
    12    20    19   ar
    13     4     3   ar
    14     4     5   ar
    15     7     3    1
    16    17     5    1
    17    17    18   ar
    18     3     2   ar
    19     5     6   ar
    20    19    18   ar
    21    19    26    1
    22    18    22    1
    23     2     8    1
    24     2     1   ar
    25     6     1   ar
    26    26    27    1
    27    30    27    1
    28     1     9    1
    29    27    28    1
    30    27    29    1
    31     9    10    1
