@<TRIPOS>MOLECULE
mol_data/opt/m06hf/geoms/mol2/6gl6gl-6gl.out
 44 46 0 0 0
SMALL
GASTEIGER

@<TRIPOS>ATOM
      1 C          -4.2590   -2.2233    0.2926 C.ar    1  LIG1        0.0949
      2 C          -2.9077   -2.1908   -0.0360 C.ar    1  LIG1       -0.0265
      3 C          -2.3430   -0.9673   -0.3759 C.ar    1  LIG1       -0.0153
      4 C          -3.1308    0.1812   -0.3649 C.ar    1  LIG1        0.1461
      5 C          -4.4880    0.0546   -0.0069 C.ar    1  LIG1        0.1163
      6 N          -5.0059   -1.1273    0.3051 N.ar    1  LIG1       -0.2370
      7 H          -1.2976   -0.9222   -0.6470 H       1  LIG1        0.0656
      8 H          -2.3054   -3.0883   -0.0296 H       1  LIG1        0.0645
      9 S          -5.1443   -3.6986    0.7489 S.3     1  LIG1       -0.1234
     10 H          -4.1793   -4.5507    0.3912 H       1  LIG1        0.1086
     11 O          -2.6744    1.4155   -0.6831 O.3     1  LIG1       -0.4930
     12 C          -1.3403    1.5352   -1.1474 C.3     1  LIG1        0.0789
     13 H          -1.2070    2.5859   -1.3887 H       1  LIG1        0.0660
     14 H          -0.6322    1.2409   -0.3688 H       1  LIG1        0.0660
     15 H          -1.1913    0.9277   -2.0432 H       1  LIG1        0.0660
     16 C          -6.6905    1.2532   -0.4932 C.ar    1  LIG1        0.1042
     17 C          -5.3922    1.2430    0.0361 C.ar    1  LIG1        0.0391
     18 C          -4.9383    2.4129    0.6494 C.ar    1  LIG1       -0.0060
     19 C          -5.7392    3.5452    0.6908 C.ar    1  LIG1        0.1467
     20 C          -7.0124    3.4767    0.0952 C.ar    1  LIG1        0.1164
     21 N          -7.4382    2.3523   -0.4610 N.ar    1  LIG1       -0.2363
     22 H          -3.9465    2.4194    1.0770 H       1  LIG1        0.0662
     23 S          -7.5114   -0.0879   -1.3268 S.3     1  LIG1       -0.1227
     24 H          -6.8310   -1.0693   -0.7277 H       1  LIG1        0.1086
     25 O          -5.3701    4.7141    1.2696 O.3     1  LIG1       -0.4929
     26 C          -4.1508    4.7412    1.9897 C.3     1  LIG1        0.0789
     27 H          -4.0832    5.7386    2.4145 H       1  LIG1        0.0660
     28 H          -4.1615    3.9970    2.7897 H       1  LIG1        0.0660
     29 H          -3.3027    4.5630    1.3232 H       1  LIG1        0.0660
     30 C          -9.2825    4.5973    0.4094 C.ar    1  LIG1        0.1034
     31 C          -7.9234    4.6601    0.0709 C.ar    1  LIG1        0.0390
     32 C          -7.3924    5.8976   -0.3112 C.ar    1  LIG1       -0.0066
     33 C          -8.2076    7.0184   -0.3160 C.ar    1  LIG1        0.1388
     34 C          -9.5399    6.8572    0.0754 C.ar    1  LIG1        0.0705
     35 N         -10.0499    5.6886    0.4163 N.ar    1  LIG1       -0.2447
     36 H          -6.3466    5.9540   -0.5779 H       1  LIG1        0.0662
     37 H         -10.1922    7.7216    0.0969 H       1  LIG1        0.0867
     38 S         -10.1594    3.1460    0.9541 S.3     1  LIG1       -0.1228
     39 H          -9.3884    2.2594    0.3131 H       1  LIG1        0.1086
     40 O          -7.8213    8.2716   -0.6632 O.3     1  LIG1       -0.4936
     41 C          -6.4671    8.4576   -1.0244 C.3     1  LIG1        0.0789
     42 H          -6.3593    9.5166   -1.2425 H       1  LIG1        0.0660
     43 H          -5.8061    8.1791   -0.1988 H       1  LIG1        0.0660
     44 H          -6.2193    7.8702   -1.9123 H       1  LIG1        0.0660
@<TRIPOS>BOND
     1    15    12    1
     2    44    41    1
     3    13    12    1
     4    23    24    1
     5    23    16    1
     6    42    41    1
     7    12    11    1
     8    12    14    1
     9    41    40    1
    10    41    43    1
    11    11     4    1
    12    40    33    1
    13     7     3    1
    14    36    32    1
    15    16    21   ar
    16    16    17   ar
    17    21    20   ar
    18     3     4   ar
    19     3     2   ar
    20     4     5   ar
    21    33    32   ar
    22    33    34   ar
    23    32    31   ar
    24     2     8    1
    25     2     1   ar
    26     5    17    1
    27     5     6   ar
    28    17    18   ar
    29    31    20    1
    30    31    30   ar
    31    34    37    1
    32    34    35   ar
    33    20    19   ar
    34     1     6   ar
    35     1     9    1
    36    39    38    1
    37    10     9    1
    38    30    35   ar
    39    30    38    1
    40    18    19   ar
    41    18    22    1
    42    19    25    1
    43    25    26    1
    44    29    26    1
    45    26    27    1
    46    26    28    1
