@<TRIPOS>MOLECULE
mol_data/opt/m06hf/geoms/mol2/6gl6gl6gl6gl.out
 58 61 0 0 0
SMALL
GASTEIGER

@<TRIPOS>ATOM
      1 C          -3.6101   -1.6626   -1.9286 C.ar    1  LIG1        0.0949
      2 C          -2.6606   -2.0630   -0.9936 C.ar    1  LIG1       -0.0265
      3 C          -2.5385   -1.3241    0.1768 C.ar    1  LIG1       -0.0153
      4 C          -3.3460   -0.2060    0.3735 C.ar    1  LIG1        0.1461
      5 C          -4.2660    0.1353   -0.6377 C.ar    1  LIG1        0.1163
      6 N          -4.3723   -0.5934   -1.7425 N.ar    1  LIG1       -0.2370
      7 H          -1.8185   -1.6261    0.9246 H       1  LIG1        0.0656
      8 H          -2.0357   -2.9286   -1.1626 H       1  LIG1        0.0645
      9 S          -3.9347   -2.5049   -3.4625 S.3     1  LIG1       -0.1234
     10 H          -3.1632   -3.5670   -3.2097 H       1  LIG1        0.1086
     11 O          -3.3051    0.5714    1.4812 O.3     1  LIG1       -0.4930
     12 C          -2.5592    0.1069    2.5955 C.3     1  LIG1        0.0789
     13 H          -2.7499    0.8187    3.3936 H       1  LIG1        0.0660
     14 H          -2.9011   -0.8862    2.8943 H       1  LIG1        0.0660
     15 H          -1.4912    0.0874    2.3662 H       1  LIG1        0.0660
     16 C          -6.5330    1.3067   -0.7940 C.ar    1  LIG1        0.1042
     17 C          -5.1609    1.3234   -0.5000 C.ar    1  LIG1        0.0391
     18 C          -4.6149    2.5242   -0.0436 C.ar    1  LIG1       -0.0060
     19 C          -5.4160    3.6428    0.1373 C.ar    1  LIG1        0.1467
     20 C          -6.7883    3.5206   -0.1426 C.ar    1  LIG1        0.1164
     21 N          -7.2904    2.3823   -0.5992 N.ar    1  LIG1       -0.2363
     22 H          -3.5600    2.5554    0.1873 H       1  LIG1        0.0662
     23 S          -7.4882   -0.0785   -1.3659 S.3     1  LIG1       -0.1227
     24 H          -6.4528   -0.8029   -1.8009 H       1  LIG1        0.1086
     25 O          -4.9579    4.8377    0.5846 O.3     1  LIG1       -0.4929
     26 C          -3.6412    4.8870    1.1085 C.3     1  LIG1        0.0789
     27 H          -3.5300    5.8820    1.5302 H       1  LIG1        0.0660
     28 H          -3.5144    4.1335    1.8896 H       1  LIG1        0.0660
     29 H          -2.9028    4.7355    0.3174 H       1  LIG1        0.0660
     30 C          -8.9553    4.5577    0.7191 C.ar    1  LIG1        0.1042
     31 C          -7.7234    4.6672    0.0587 C.ar    1  LIG1        0.0391
     32 C          -7.3572    5.9252   -0.4214 C.ar    1  LIG1       -0.0060
     33 C          -8.1812    7.0236   -0.2181 C.ar    1  LIG1        0.1467
     34 C          -9.3791    6.8278    0.4928 C.ar    1  LIG1        0.1164
     35 N          -9.7252    5.6223    0.9221 N.ar    1  LIG1       -0.2363
     36 H          -6.4103    6.0274   -0.9313 H       1  LIG1        0.0662
     37 S          -9.6248    3.0811    1.4525 S.3     1  LIG1       -0.1227
     38 H          -8.9935    2.2244    0.6415 H       1  LIG1        0.1086
     39 O          -7.8931    8.2763   -0.6496 O.3     1  LIG1       -0.4929
     40 C          -6.6100    8.5015   -1.2059 C.3     1  LIG1        0.0789
     41 H          -6.5539    9.5696   -1.3960 H       1  LIG1        0.0660
     42 H          -5.8299    8.2073   -0.4988 H       1  LIG1        0.0660
     43 H          -6.4916    7.9518   -2.1433 H       1  LIG1        0.0660
     44 C         -10.8485    8.2200    2.0419 C.ar    1  LIG1        0.1034
     45 C         -10.3059    7.9652    0.7753 C.ar    1  LIG1        0.0390
     46 C         -10.6525    8.8196   -0.2768 C.ar    1  LIG1       -0.0066
     47 C         -11.4901    9.8971   -0.0327 C.ar    1  LIG1        0.1388
     48 C         -11.9503   10.0833    1.2740 C.ar    1  LIG1        0.0705
     49 N         -11.6413    9.2681    2.2656 N.ar    1  LIG1       -0.2447
     50 H         -10.2430    8.6285   -1.2584 H       1  LIG1        0.0662
     51 H         -12.5944   10.9268    1.4921 H       1  LIG1        0.0867
     52 S         -10.5057    7.2876    3.5220 S.3     1  LIG1       -0.1228
     53 H         -10.2947    6.1161    2.9118 H       1  LIG1        0.1086
     54 O         -11.9001   10.8000   -0.9578 O.3     1  LIG1       -0.4936
     55 C         -11.4365   10.6299   -2.2831 C.3     1  LIG1        0.0789
     56 H         -11.8687   11.4454   -2.8567 H       1  LIG1        0.0660
     57 H         -10.3451   10.6881   -2.3206 H       1  LIG1        0.0660
     58 H         -11.7714    9.6726   -2.6902 H       1  LIG1        0.0660
@<TRIPOS>BOND
     1     9    10    1
     2     9     1    1
     3    56    55    1
     4    58    55    1
     5    57    55    1
     6    55    54    1
     7    43    40    1
     8     1     6   ar
     9     1     2   ar
    10    24    23    1
    11     6     5   ar
    12    41    40    1
    13    23    16    1
    14    50    46    1
    15    40    39    1
    16    40    42    1
    17     8     2    1
    18     2     3   ar
    19    54    47    1
    20    36    32    1
    21    16    21   ar
    22    16    17   ar
    23    39    33    1
    24     5    17    1
    25     5     4   ar
    26    21    20   ar
    27    17    18   ar
    28    32    33   ar
    29    32    31   ar
    30    46    47   ar
    31    46    45   ar
    32    33    34   ar
    33    20    31    1
    34    20    19   ar
    35    18    19   ar
    36    18    22    1
    37    47    48   ar
    38    31    30   ar
    39    19    25    1
    40     3     4   ar
    41     3     7    1
    42    29    26    1
    43     4    11    1
    44    34    45    1
    45    34    35   ar
    46    25    26    1
    47    38    37    1
    48    30    35   ar
    49    30    37    1
    50    45    44   ar
    51    26    27    1
    52    26    28    1
    53    48    51    1
    54    48    49   ar
    55    11    12    1
    56    44    49   ar
    57    44    52    1
    58    15    12    1
    59    12    14    1
    60    12    13    1
    61    53    52    1
