@<TRIPOS>MOLECULE
mol_data/opt/m06hf/geoms/mol2/6gl6gl6gl-.out
 44 46 0 0 0
SMALL
GASTEIGER

@<TRIPOS>ATOM
      1 C          -4.2547   -2.2217   -0.2982 C.ar    1  LIG1        0.0949
      2 C          -2.9099   -2.1918    0.0562 C.ar    1  LIG1       -0.0265
      3 C          -2.3515   -0.9708    0.4147 C.ar    1  LIG1       -0.0153
      4 C          -3.1386    0.1780    0.3963 C.ar    1  LIG1        0.1461
      5 C          -4.4888    0.0543    0.0118 C.ar    1  LIG1        0.1163
      6 N          -5.0010   -1.1254   -0.3176 N.ar    1  LIG1       -0.2370
      7 H          -1.3114   -0.9279    0.7059 H       1  LIG1        0.0656
      8 H          -2.3078   -3.0895    0.0552 H       1  LIG1        0.0645
      9 S          -5.1316   -3.6937   -0.7809 S.3     1  LIG1       -0.1234
     10 H          -4.1740   -4.5485   -0.4099 H       1  LIG1        0.1086
     11 O          -2.6881    1.4100    0.7314 O.3     1  LIG1       -0.4930
     12 C          -1.3631    1.5261    1.2221 C.3     1  LIG1        0.0789
     13 H          -1.2343    2.5751    1.4729 H       1  LIG1        0.0660
     14 H          -1.2315    0.9126    2.1165 H       1  LIG1        0.0660
     15 H          -0.6402    1.2368    0.4553 H       1  LIG1        0.0660
     16 C          -6.7001    1.2503    0.4639 C.ar    1  LIG1        0.1042
     17 C          -5.3919    1.2432   -0.0405 C.ar    1  LIG1        0.0391
     18 C          -4.9262    2.4170   -0.6372 C.ar    1  LIG1       -0.0060
     19 C          -5.7259    3.5498   -0.6863 C.ar    1  LIG1        0.1467
     20 C          -7.0103    3.4777   -0.1157 C.ar    1  LIG1        0.1164
     21 N          -7.4469    2.3498    0.4248 N.ar    1  LIG1       -0.2363
     22 H          -3.9264    2.4261   -1.0458 H       1  LIG1        0.0662
     23 S          -7.5370   -0.0961    1.2727 S.3     1  LIG1       -0.1227
     24 H          -6.8454   -1.0737    0.6801 H       1  LIG1        0.1086
     25 O          -5.3456    4.7225   -1.2501 O.3     1  LIG1       -0.4929
     26 C          -4.1124    4.7543   -1.9460 C.3     1  LIG1        0.0789
     27 H          -4.0363    5.7546   -2.3624 H       1  LIG1        0.0660
     28 H          -3.2776    4.5712   -1.2642 H       1  LIG1        0.0660
     29 H          -4.1075    4.0157   -2.7512 H       1  LIG1        0.0660
     30 C          -9.2739    4.6010   -0.4655 C.ar    1  LIG1        0.1034
     31 C          -7.9214    4.6612   -0.1009 C.ar    1  LIG1        0.0390
     32 C          -7.3975    5.8960    0.2994 C.ar    1  LIG1       -0.0066
     33 C          -8.2125    7.0170    0.2960 C.ar    1  LIG1        0.1388
     34 C          -9.5371    6.8588   -0.1216 C.ar    1  LIG1        0.0705
     35 N         -10.0408    5.6926   -0.4798 N.ar    1  LIG1       -0.2447
     36 H          -6.3570    5.9503    0.5862 H       1  LIG1        0.0662
     37 H         -10.1888    7.7235   -0.1499 H       1  LIG1        0.0867
     38 S         -10.1406    3.1537   -1.0361 S.3     1  LIG1       -0.1228
     39 H          -9.3822    2.2626   -0.3863 H       1  LIG1        0.1086
     40 O          -7.8327    8.2678    0.6588 O.3     1  LIG1       -0.4936
     41 C          -6.4853    8.4512    1.0459 C.3     1  LIG1        0.0789
     42 H          -6.3814    9.5089    1.2725 H       1  LIG1        0.0660
     43 H          -6.2539    7.8583    1.9346 H       1  LIG1        0.0660
     44 H          -5.8093    8.1777    0.2308 H       1  LIG1        0.0660
@<TRIPOS>BOND
     1    29    26    1
     2    27    26    1
     3    26    28    1
     4    26    25    1
     5    25    19    1
     6    22    18    1
     7    38    30    1
     8    38    39    1
     9     9    10    1
    10     9     1    1
    11    19    18   ar
    12    19    20   ar
    13    18    17   ar
    14    35    30   ar
    15    35    34   ar
    16    30    31   ar
    17     6     1   ar
    18     6     5   ar
    19     1     2   ar
    20    37    34    1
    21    34    33   ar
    22    20    31    1
    23    20    21   ar
    24    31    32   ar
    25    17     5    1
    26    17    16   ar
    27     5     4   ar
    28     8     2    1
    29     2     3   ar
    30    44    41    1
    31    33    32   ar
    32    33    40    1
    33    32    36    1
    34     4     3   ar
    35     4    11    1
    36     3     7    1
    37    21    16   ar
    38    15    12    1
    39    16    23    1
    40    40    41    1
    41    24    23    1
    42    11    12    1
    43    41    42    1
    44    41    43    1
    45    12    13    1
    46    12    14    1
