@<TRIPOS>MOLECULE
mol_data/opt/m06hf/geoms/mol2/6gl6gl6gl-6gl.out
 58 61 0 0 0
SMALL
GASTEIGER

@<TRIPOS>ATOM
      1 C          -3.9902   -2.1963   -0.7292 C.ar    1  LIG1        0.0949
      2 C          -2.6712   -2.1536   -0.2872 C.ar    1  LIG1       -0.0265
      3 C          -2.1911   -0.9606    0.2387 C.ar    1  LIG1       -0.0153
      4 C          -3.0278    0.1518    0.2939 C.ar    1  LIG1        0.1461
      5 C          -4.3445    0.0174   -0.1846 C.ar    1  LIG1        0.1163
      6 N          -4.7842   -1.1353   -0.6746 N.ar    1  LIG1       -0.2370
      7 H          -1.1731   -0.9071    0.5988 H       1  LIG1        0.0656
      8 H          -2.0309   -3.0223   -0.3481 H       1  LIG1        0.0645
      9 S          -4.7708   -3.6353   -1.4273 S.3     1  LIG1       -0.1234
     10 H          -3.8084   -4.4967   -1.0857 H       1  LIG1        0.1086
     11 O          -2.6566    1.3577    0.7840 O.3     1  LIG1       -0.4930
     12 C          -1.4194    1.4491    1.4716 C.3     1  LIG1        0.0789
     13 H          -1.3762    2.4609    1.8640 H       1  LIG1        0.0660
     14 H          -1.3864    0.7305    2.2938 H       1  LIG1        0.0660
     15 H          -0.5826    1.2818    0.7896 H       1  LIG1        0.0660
     16 C          -6.6140    1.0705    0.3171 C.ar    1  LIG1        0.1042
     17 C          -5.2970    1.1676   -0.1542 C.ar    1  LIG1        0.0391
     18 C          -4.8725    2.4097   -0.6281 C.ar    1  LIG1       -0.0060
     19 C          -5.7223    3.5070   -0.5933 C.ar    1  LIG1        0.1467
     20 C          -7.0114    3.3282   -0.0585 C.ar    1  LIG1        0.1164
     21 N          -7.4059    2.1362    0.3654 N.ar    1  LIG1       -0.2363
     22 H          -3.8668    2.5017   -1.0126 H       1  LIG1        0.0662
     23 S          -7.4031   -0.3869    0.9636 S.3     1  LIG1       -0.1227
     24 H          -6.6575   -1.2637    0.2841 H       1  LIG1        0.1086
     25 O          -5.3828    4.7400   -1.0437 O.3     1  LIG1       -0.4929
     26 C          -4.1832    4.8704   -1.7878 C.3     1  LIG1        0.0789
     27 H          -4.1639    5.8992   -2.1357 H       1  LIG1        0.0660
     28 H          -3.3118    4.6766   -1.1575 H       1  LIG1        0.0660
     29 H          -4.1885    4.1889   -2.6416 H       1  LIG1        0.0660
     30 C          -9.3388    4.3599   -0.2822 C.ar    1  LIG1        0.1042
     31 C          -7.9781    4.4613    0.0461 C.ar    1  LIG1        0.0391
     32 C          -7.5192    5.6955    0.5116 C.ar    1  LIG1       -0.0060
     33 C          -8.3777    6.7819    0.5988 C.ar    1  LIG1        0.1467
     34 C          -9.7146    6.6022    0.1984 C.ar    1  LIG1        0.1164
     35 N         -10.1415    5.4179   -0.2147 N.ar    1  LIG1       -0.2363
     36 H          -6.4796    5.7883    0.7905 H       1  LIG1        0.0662
     37 S         -10.1820    2.9105   -0.8767 S.3     1  LIG1       -0.1227
     38 H          -9.3628    2.0270   -0.2946 H       1  LIG1        0.1086
     39 O          -8.0044    8.0063    1.0480 O.3     1  LIG1       -0.4929
     40 C          -6.7154    8.1374    1.6203 C.3     1  LIG1        0.0789
     41 H          -6.6575    9.1597    1.9832 H       1  LIG1        0.0660
     42 H          -6.5942    7.4399    2.4524 H       1  LIG1        0.0660
     43 H          -5.9381    7.9650    0.8711 H       1  LIG1        0.0660
     44 C         -11.9895    7.6205    0.7531 C.ar    1  LIG1        0.1034
     45 C         -10.6934    7.7305    0.2292 C.ar    1  LIG1        0.0390
     46 C         -10.2944    8.9660   -0.2925 C.ar    1  LIG1       -0.0066
     47 C         -11.1661   10.0422   -0.2473 C.ar    1  LIG1        0.1388
     48 C         -12.4220    9.8398    0.3317 C.ar    1  LIG1        0.0705
     49 N         -12.8115    8.6704    0.8039 N.ar    1  LIG1       -0.2447
     50 H          -9.3006    9.0598   -0.7063 H       1  LIG1        0.0662
     51 H         -13.1157   10.6695    0.3954 H       1  LIG1        0.0867
     52 S         -12.7044    6.1647    1.4875 S.3     1  LIG1       -0.1228
     53 H         -11.9504    5.2814    0.8249 H       1  LIG1        0.1086
     54 O         -10.8992   11.2888   -0.7130 O.3     1  LIG1       -0.4936
     55 C          -9.6224   11.5073   -1.2797 C.3     1  LIG1        0.0789
     56 H          -9.6008   12.5528   -1.5741 H       1  LIG1        0.0660
     57 H          -8.8361   11.3117   -0.5450 H       1  LIG1        0.0660
     58 H          -9.4752   10.8731   -2.1579 H       1  LIG1        0.0660
@<TRIPOS>BOND
     1    29    26    1
     2    58    55    1
     3    27    26    1
     4    26    28    1
     5    26    25    1
     6    56    55    1
     7     9    10    1
     8     9     1    1
     9    55    54    1
    10    55    57    1
    11    25    19    1
    12    22    18    1
    13    37    38    1
    14    37    30    1
    15     1     6   ar
    16     1     2   ar
    17    54    47    1
    18    50    46    1
    19     6     5   ar
    20    18    19   ar
    21    18    17   ar
    22    19    20   ar
    23     8     2    1
    24    46    47   ar
    25    46    45   ar
    26     2     3   ar
    27    30    35   ar
    28    30    31   ar
    29    47    48   ar
    30    35    34   ar
    31     5    17    1
    32     5     4   ar
    33    17    16   ar
    34    20    31    1
    35    20    21   ar
    36    31    32   ar
    37    34    45    1
    38    34    33   ar
    39    45    44   ar
    40     3     4   ar
    41     3     7    1
    42    24    23    1
    43     4    11    1
    44    16    21   ar
    45    16    23    1
    46    48    51    1
    47    48    49   ar
    48    32    33   ar
    49    32    36    1
    50    33    39    1
    51    44    49   ar
    52    44    52    1
    53    11    12    1
    54    15    12    1
    55    53    52    1
    56    43    40    1
    57    39    40    1
    58    12    13    1
    59    12    14    1
    60    40    41    1
    61    40    42    1
