@<TRIPOS>MOLECULE
mol_data/opt/m06hf/geoms/mol2/6gl6gl.out
 30 31 0 0 0
SMALL
GASTEIGER

@<TRIPOS>ATOM
      1 C          -4.4363   -2.0269   -0.7463 C.ar    1  LIG1        0.0949
      2 C          -3.0731   -2.1182   -0.4889 C.ar    1  LIG1       -0.0265
      3 C          -2.4266   -1.0016    0.0297 C.ar    1  LIG1       -0.0153
      4 C          -3.1500    0.1643    0.2638 C.ar    1  LIG1        0.1461
      5 C          -4.5269    0.1672   -0.0369 C.ar    1  LIG1        0.1163
      6 N          -5.1227   -0.9128   -0.5263 N.ar    1  LIG1       -0.2370
      7 H          -1.3692   -1.0524    0.2487 H       1  LIG1        0.0656
      8 H          -2.5245   -3.0297   -0.6790 H       1  LIG1        0.0645
      9 S          -5.4357   -3.3530   -1.3855 S.3     1  LIG1       -0.1234
     10 H          -4.4664   -4.2730   -1.4023 H       1  LIG1        0.1086
     11 O          -2.6150    1.3005    0.7690 O.3     1  LIG1       -0.4930
     12 C          -1.2791    1.2590    1.2407 C.3     1  LIG1        0.0789
     13 H          -1.0957    2.2310    1.6890 H       1  LIG1        0.0660
     14 H          -1.1631    0.4758    1.9935 H       1  LIG1        0.0660
     15 H          -0.5814    1.0942    0.4157 H       1  LIG1        0.0660
     16 C          -6.6052    1.3738    0.8195 C.ar    1  LIG1        0.1034
     17 C          -5.3608    1.3889    0.1756 C.ar    1  LIG1        0.0390
     18 C          -4.8789    2.6130   -0.3028 C.ar    1  LIG1       -0.0066
     19 C          -5.6230    3.7648   -0.1047 C.ar    1  LIG1        0.1388
     20 C          -6.8377    3.6472    0.5784 C.ar    1  LIG1        0.0705
     21 N          -7.3044    2.4928    1.0145 N.ar    1  LIG1       -0.2447
     22 H          -3.9227    2.6354   -0.8059 H       1  LIG1        0.0662
     23 H          -7.4300    4.5359    0.7584 H       1  LIG1        0.0867
     24 S          -7.4014   -0.0465    1.5414 S.3     1  LIG1       -0.1228
     25 H          -6.7970   -0.9657    0.7812 H       1  LIG1        0.1086
     26 O          -5.2718    5.0098   -0.5101 O.3     1  LIG1       -0.4936
     27 C          -4.0465    5.1494   -1.2027 C.3     1  LIG1        0.0789
     28 H          -3.9542    6.2065   -1.4356 H       1  LIG1        0.0660
     29 H          -3.2098    4.8338   -0.5736 H       1  LIG1        0.0660
     30 H          -4.0567    4.5666   -2.1273 H       1  LIG1        0.0660
@<TRIPOS>BOND
     1    30    27    1
     2    28    27    1
     3    10     9    1
     4     9     1    1
     5    27    29    1
     6    27    26    1
     7    22    18    1
     8     1     6   ar
     9     1     2   ar
    10     8     2    1
    11     6     5   ar
    12    26    19    1
    13     2     3   ar
    14    18    19   ar
    15    18    17   ar
    16    19    20   ar
    17     5    17    1
    18     5     4   ar
    19     3     7    1
    20     3     4   ar
    21    17    16   ar
    22     4    11    1
    23    15    12    1
    24    20    23    1
    25    20    21   ar
    26    11    12    1
    27    25    24    1
    28    16    21   ar
    29    16    24    1
    30    12    13    1
    31    12    14    1
