@<TRIPOS>MOLECULE
mol_data/opt/m06hf/geoms/mol2/6ha12fl13eh13fd-6ee-12fd-6lf6ef-.out
 95 102 0 0 0
SMALL
GASTEIGER

@<TRIPOS>ATOM
      1 C          -5.2994   -1.9975   -2.1915 C.ar    1  LIG1        0.1169
      2 C          -3.9386   -2.0532   -2.5512 C.ar    1  LIG1       -0.0221
      3 C          -3.1535   -0.9444   -2.3044 C.ar    1  LIG1       -0.0564
      4 C          -3.7103    0.1910   -1.7180 C.ar    1  LIG1       -0.0324
      5 C          -5.0640    0.1441   -1.3978 C.ar    1  LIG1        0.1119
      6 N          -5.8422   -0.9223   -1.6241 N.ar    1  LIG1       -0.2292
      7 H          -2.1043   -0.9568   -2.5703 H       1  LIG1        0.0619
      8 H          -3.5328   -2.9485   -3.0010 H       1  LIG1        0.0652
      9 N          -6.1166   -3.0894   -2.3809 N.pl3   1  LIG1       -0.3431
     10 H          -7.1120   -2.9234   -2.3486 H       1  LIG1        0.1437
     11 H          -5.8188   -3.7798   -3.0520 H       1  LIG1        0.1437
     12 H          -3.1310    1.0793   -1.5131 H       1  LIG1        0.0640
     13 C          -5.6956    1.3146   -0.7806 C.ar    1  LIG1        0.1989
     14 C          -5.1968    2.5011   -0.3362 C.ar    1  LIG1        0.2076
     15 C          -6.2995    3.2553    0.1843 C.ar    1  LIG1        0.2099
     16 C          -7.4051    2.4784    0.0164 C.ar    1  LIG1        0.1983
     17 O          -7.0396    1.3062   -0.5582 O.2     1  LIG1       -0.4442
     18 O          -3.9195    2.9432   -0.3479 O.3     1  LIG1       -0.5008
     19 H          -3.9307    3.8724   -0.0788 H       1  LIG1        0.2924
     20 O          -6.1437    4.4854    0.7358 O.3     1  LIG1       -0.4884
     21 C          -6.1036    4.4586    2.1698 C.3     1  LIG1        0.0791
     22 H          -5.9853    5.4912    2.4869 H       1  LIG1        0.0660
     23 H          -7.0370    4.0543    2.5592 H       1  LIG1        0.0660
     24 H          -5.2569    3.8538    2.5025 H       1  LIG1        0.0660
     25 C          -8.8195    2.5905    0.3206 C.ar    1  LIG1        0.1038
     26 C          -9.6376    3.5961    0.8285 C.ar    1  LIG1        0.0743
     27 C         -10.9653    3.0611    0.9088 C.ar    1  LIG1        0.0681
     28 C         -10.8999    1.7648    0.4418 C.ar    1  LIG1        0.0892
     29 N          -9.5938    1.5073    0.0923 N.ar    1  LIG1       -0.3480
     30 H          -9.2674    0.6998   -0.4210 H       1  LIG1        0.1661
     31 C          -9.2915    4.9337    1.1902 C.1     1  LIG1       -0.0656
     32 C          -9.0638    6.0741    1.5001 C.1     1  LIG1       -0.1138
     33 H          -8.8509    7.0850    1.7582 H       1  LIG1        0.1232
     34 N         -12.0751    3.7130    1.4291 N.pl3   1  LIG1       -0.3553
     35 H         -11.9661    4.7187    1.4470 H       1  LIG1        0.1424
     36 H         -12.9516    3.4174    1.0140 H       1  LIG1        0.1424
     37 C         -11.8748    0.7003    0.3099 C.ar    1  LIG1        0.1085
     38 C         -13.2179    0.6611    0.0129 C.ar    1  LIG1        0.1616
     39 C         -13.5765   -0.7057   -0.1615 C.ar    1  LIG1        0.1190
     40 C         -12.4228   -1.4704    0.0270 C.ar    1  LIG1        0.0709
     41 N         -11.4428   -0.5977    0.3332 N.ar    1  LIG1       -0.3489
     42 H         -10.5036   -0.8774    0.5817 H       1  LIG1        0.1661
     43 O         -14.0068    1.7577   -0.1218 O.3     1  LIG1       -0.5034
     44 H         -14.9006    1.5009   -0.3797 H       1  LIG1        0.2923
     45 N         -15.9585   -1.4290   -0.8280 N.1     1  LIG1       -0.1907
     46 C         -14.8842   -1.1407   -0.5371 C.1     1  LIG1        0.1050
     47 C         -10.8885   -3.4377   -0.3903 C.ar    1  LIG1        0.1231
     48 C         -12.1702   -2.9105   -0.1093 C.ar    1  LIG1        0.0347
     49 C         -13.2094   -3.8278    0.0346 C.ar    1  LIG1       -0.0323
     50 C         -12.9724   -5.1922   -0.1161 C.ar    1  LIG1        0.0545
     51 C         -11.6662   -5.6005   -0.4420 C.ar    1  LIG1        0.1264
     52 N         -10.6651   -4.7357   -0.5562 N.ar    1  LIG1       -0.2333
     53 H         -14.2067   -3.4949    0.2901 H       1  LIG1        0.0638
     54 C          -9.7001   -2.6068   -0.5323 C.1     1  LIG1       -0.0491
     55 C          -8.6957   -1.9455   -0.6292 C.1     1  LIG1       -0.1124
     56 H          -7.7793   -1.3837   -0.7629 H       1  LIG1        0.1232
     57 C         -14.0305   -6.1324    0.1357 C.1     1  LIG1       -0.0674
     58 C         -14.9309   -6.8892    0.3764 C.1     1  LIG1       -0.1138
     59 H         -15.7282   -7.5656    0.5814 H       1  LIG1        0.1232
     60 C         -11.3021   -7.0081   -0.6558 C.ar    1  LIG1        0.1975
     61 C         -11.8909   -8.0593   -1.2949 C.ar    1  LIG1        0.1826
     62 C         -10.9419   -9.1361   -1.2348 C.ar    1  LIG1        0.1396
     63 C          -9.8431   -8.6480   -0.5709 C.ar    1  LIG1        0.1620
     64 O         -10.0670   -7.3854   -0.2312 O.2     1  LIG1       -0.4479
     65 O         -13.0853   -8.0746   -1.9099 O.3     1  LIG1       -0.5023
     66 H         -13.2137   -8.9106   -2.3745 H       1  LIG1        0.2923
     67 N         -11.3718  -11.4440   -2.2969 N.1     1  LIG1       -0.1906
     68 C         -11.1429  -10.4258   -1.8169 C.1     1  LIG1        0.1067
     69 C          -7.3553   -8.5668   -0.1865 C.ar    1  LIG1        0.2262
     70 C          -8.5759   -9.2894   -0.2034 C.ar    1  LIG1        0.0836
     71 C          -8.5312  -10.6376    0.1036 C.ar    1  LIG1       -0.0022
     72 C          -7.3087  -11.2330    0.4231 C.ar    1  LIG1        0.1437
     73 C          -6.1739  -10.4311    0.4364 C.ar    1  LIG1        0.1188
     74 N          -6.2142   -9.1296    0.1314 N.ar    1  LIG1       -0.2085
     75 H          -9.4237  -11.2506    0.1042 H       1  LIG1        0.0663
     76 O          -7.3847   -7.2754   -0.5219 O.3     1  LIG1       -0.4792
     77 C          -6.1433   -6.5704   -0.4896 C.3     1  LIG1        0.0804
     78 H          -6.3808   -5.5578   -0.8032 H       1  LIG1        0.0660
     79 H          -5.7362   -6.5795    0.5207 H       1  LIG1        0.0660
     80 H          -5.4295   -7.0434   -1.1646 H       1  LIG1        0.0660
     81 O          -7.2989  -12.5601    0.7193 O.3     1  LIG1       -0.5046
     82 H          -6.4004  -12.9085    0.6612 H       1  LIG1        0.2922
     83 C          -3.7451  -10.9012   -0.0822 C.ar    1  LIG1        0.1226
     84 C          -4.8438  -11.0096    0.7896 C.ar    1  LIG1        0.0413
     85 C          -4.6650  -11.6691    2.0016 C.ar    1  LIG1       -0.0067
     86 C          -3.4077  -12.1789    2.3100 C.ar    1  LIG1        0.1356
     87 C          -2.3767  -12.0063    1.3856 C.ar    1  LIG1        0.0704
     88 N          -2.5446  -11.3898    0.2247 N.ar    1  LIG1       -0.2424
     89 H          -5.4751  -11.7723    2.7136 H       1  LIG1        0.0662
     90 H          -1.3812  -12.3850    1.5964 H       1  LIG1        0.0867
     91 C          -3.8852  -10.2802   -1.3841 C.1     1  LIG1       -0.0491
     92 C          -3.9991   -9.7952   -2.4762 C.1     1  LIG1       -0.1124
     93 H          -4.0968   -9.3702   -3.4481 H       1  LIG1        0.1232
     94 O          -3.2410  -12.8132    3.4933 O.3     1  LIG1       -0.5052
     95 H          -2.3332  -13.1181    3.6006 H       1  LIG1        0.2922
@<TRIPOS>BOND
     1    93    92    1
     2    11     9    1
     3     8     2    1
     4     7     3    1
     5     2     3   ar
     6     2     1   ar
     7    92    91    3
     8     9    10    1
     9     9     1    1
    10    66    65    1
    11     3     4   ar
    12    67    68    3
    13     1     6   ar
    14    65    61    1
    15    68    62    1
    16     4    12    1
    17     4     5   ar
    18     6     5   ar
    19     5    13    1
    20    91    83    1
    21    61    62   ar
    22    61    60   ar
    23    62    63   ar
    24    80    77    1
    25    45    46    3
    26    78    77    1
    27    13    17   ar
    28    13    14   ar
    29    56    55    1
    30    60    51    1
    31    60    64   ar
    32    55    54    3
    33    63    64   ar
    34    63    70    1
    35    17    16   ar
    36    52    51   ar
    37    52    47   ar
    38    46    39    1
    39    54    47    1
    40    76    77    1
    41    76    69    1
    42    77    79    1
    43    51    50   ar
    44    30    29    1
    45    47    48   ar
    46    44    43    1
    47    18    14    1
    48    18    19    1
    49    14    15   ar
    50    70    69   ar
    51    70    71   ar
    52    69    74   ar
    53    39    38   ar
    54    39    40   ar
    55    43    38    1
    56    50    49   ar
    57    50    57    1
    58    48    40    1
    59    48    49   ar
    60    83    88   ar
    61    83    84   ar
    62    38    37   ar
    63    16    15   ar
    64    16    25    1
    65    40    41   ar
    66    49    53    1
    67    29    25   ar
    68    29    28   ar
    69    71    75    1
    70    71    72   ar
    71    74    73   ar
    72    57    58    3
    73    15    20    1
    74    88    87   ar
    75    37    41   ar
    76    37    28    1
    77    25    26   ar
    78    41    42    1
    79    58    59    1
    80    72    73   ar
    81    72    81    1
    82    73    84    1
    83    28    27   ar
    84    82    81    1
    85    20    21    1
    86    84    85   ar
    87    26    27   ar
    88    26    31    1
    89    27    34    1
    90    36    34    1
    91    31    32    3
    92    87    90    1
    93    87    86   ar
    94    34    35    1
    95    32    33    1
    96    85    86   ar
    97    85    89    1
    98    21    22    1
    99    21    24    1
   100    21    23    1
   101    86    94    1
   102    94    95    1
