@<TRIPOS>MOLECULE
mol_data/opt/m06hf/geoms/mol2/6ha13eh-6fd-13fe13li.out
 62 66 0 0 0
SMALL
GASTEIGER

@<TRIPOS>ATOM
      1 C          -4.8652   -1.8668    1.6053 C.ar    1  LIG1        0.1169
      2 C          -3.4725   -2.0828    1.6709 C.ar    1  LIG1       -0.0221
      3 C          -2.6395   -1.1172    1.1439 C.ar    1  LIG1       -0.0565
      4 C          -3.1733    0.0402    0.5705 C.ar    1  LIG1       -0.0341
      5 C          -4.5555    0.1563    0.5602 C.ar    1  LIG1        0.0905
      6 N          -5.3821   -0.7728    1.0595 N.ar    1  LIG1       -0.2309
      7 H          -1.5665   -1.2559    1.1793 H       1  LIG1        0.0619
      8 H          -3.0837   -2.9807    2.1306 H       1  LIG1        0.0652
      9 N          -5.7508   -2.7703    2.1391 N.pl3   1  LIG1       -0.3431
     10 H          -6.7136   -2.6434    1.8665 H       1  LIG1        0.1437
     11 H          -5.4450   -3.7209    2.2663 H       1  LIG1        0.1437
     12 H          -2.5516    0.8180    0.1540 H       1  LIG1        0.0639
     13 C          -5.2479    1.3315    0.0003 C.ar    1  LIG1        0.0829
     14 C          -4.8168    2.4927   -0.6314 C.ar    1  LIG1        0.0726
     15 C          -5.9790    3.2726   -0.9155 C.ar    1  LIG1        0.0666
     16 C          -7.0709    2.5641   -0.4542 C.ar    1  LIG1        0.0743
     17 N          -6.5945    1.3852    0.0808 N.ar    1  LIG1       -0.3504
     18 H          -7.1072    0.6830    0.6023 H       1  LIG1        0.1660
     19 C          -3.4880    2.8869   -0.9812 C.1     1  LIG1       -0.0656
     20 C          -2.3911    3.2655   -1.3017 C.1     1  LIG1       -0.1138
     21 H          -1.4167    3.5945   -1.5799 H       1  LIG1        0.1232
     22 N          -5.9926    4.5393   -1.5110 N.pl3   1  LIG1       -0.3554
     23 H          -5.0768    4.8028   -1.8554 H       1  LIG1        0.1424
     24 H          -6.6941    4.6341   -2.2372 H       1  LIG1        0.1424
     25 C          -9.5050    1.9856   -0.7063 C.ar    1  LIG1        0.2224
     26 C          -8.4898    2.9358   -0.4498 C.ar    1  LIG1        0.0627
     27 C          -8.9060    4.2396   -0.2347 C.ar    1  LIG1       -0.0279
     28 C         -10.2695    4.5507   -0.2152 C.ar    1  LIG1        0.0801
     29 C         -11.1959    3.5059   -0.3563 C.ar    1  LIG1        0.1119
     30 N         -10.7859    2.2577   -0.6334 N.ar    1  LIG1       -0.2096
     31 H          -8.1669    5.0202   -0.0945 H       1  LIG1        0.0639
     32 O          -9.1973    0.7138   -1.0290 O.3     1  LIG1       -0.4919
     33 H          -8.2695    0.6552   -1.2949 H       1  LIG1        0.2937
     34 N         -10.8510    7.0721   -0.1533 N.1     1  LIG1       -0.1908
     35 C         -10.6421    5.9439   -0.1499 C.1     1  LIG1        0.1014
     36 C         -12.6433    3.6446   -0.2649 C.ar    1  LIG1        0.1100
     37 C         -13.5043    4.5281    0.3583 C.ar    1  LIG1        0.1596
     38 C         -14.8332    4.0609    0.1550 C.ar    1  LIG1        0.0935
     39 C         -14.7397    2.8751   -0.5711 C.ar    1  LIG1        0.0862
     40 N         -13.4300    2.6455   -0.8033 N.ar    1  LIG1       -0.3478
     41 H         -13.0140    1.7937   -1.1568 H       1  LIG1        0.1661
     42 O         -13.1620    5.6149    1.0700 O.3     1  LIG1       -0.5034
     43 H         -13.9647    6.0861    1.3309 H       1  LIG1        0.2923
     44 C         -15.9844    4.7556    0.6340 C.1     1  LIG1       -0.0638
     45 C         -16.9017    5.3960    1.0768 C.1     1  LIG1       -0.1137
     46 H         -17.7355    5.9427    1.4509 H       1  LIG1        0.1232
     47 C         -15.7812    1.9814   -1.0550 C.ar    1  LIG1        0.1067
     48 C         -17.0065    1.6359   -0.5198 C.ar    1  LIG1        0.1496
     49 C         -17.6262    0.6907   -1.3848 C.ar    1  LIG1        0.0092
     50 C         -16.7526    0.5002   -2.4286 C.ar    1  LIG1        0.0087
     51 N         -15.6422    1.2643   -2.2189 N.ar    1  LIG1       -0.3563
     52 H         -14.9025    1.4091   -2.8872 H       1  LIG1        0.1655
     53 H         -16.8467   -0.1174   -3.3056 H       1  LIG1        0.0811
     54 O         -17.5624    2.0908    0.6373 O.3     1  LIG1       -0.4927
     55 C         -16.9146    1.6278    1.8184 C.3     1  LIG1        0.0789
     56 H         -17.4833    2.0273    2.6548 H       1  LIG1        0.0660
     57 H         -16.9184    0.5354    1.8433 H       1  LIG1        0.0660
     58 H         -15.8883    1.9969    1.8610 H       1  LIG1        0.0660
     59 C         -18.9746    0.0582   -1.1574 C.3     1  LIG1       -0.0348
     60 H         -19.2164   -0.6209   -1.9749 H       1  LIG1        0.0279
     61 H         -19.7454    0.8267   -1.0959 H       1  LIG1        0.0279
     62 H         -18.9813   -0.5035   -0.2221 H       1  LIG1        0.0279
@<TRIPOS>BOND
     1    53    50    1
     2    52    51    1
     3    50    51   ar
     4    50    49   ar
     5    24    22    1
     6    51    47   ar
     7    60    59    1
     8    23    22    1
     9    21    20    1
    10    22    15    1
    11    49    59    1
    12    49    48   ar
    13    20    19    3
    14    33    32    1
    15    59    61    1
    16    59    62    1
    17    41    40    1
    18    47    39    1
    19    47    48   ar
    20    32    25    1
    21    19    14    1
    22    15    14   ar
    23    15    16   ar
    24    40    39   ar
    25    40    36   ar
    26    25    30   ar
    27    25    26   ar
    28    30    29   ar
    29    14    13   ar
    30    39    38   ar
    31    48    54    1
    32    16    26    1
    33    16    17   ar
    34    26    27   ar
    35    29    36    1
    36    29    28   ar
    37    36    37   ar
    38    27    28   ar
    39    27    31    1
    40    28    35    1
    41    34    35    3
    42    13    17   ar
    43    13     5    1
    44    17    18    1
    45    12     4    1
    46    38    37   ar
    47    38    44    1
    48    37    42    1
    49     5     4   ar
    50     5     6   ar
    51     4     3   ar
    52    44    45    3
    53    54    55    1
    54     6     1   ar
    55    42    43    1
    56    45    46    1
    57     3     7    1
    58     3     2   ar
    59     1     2   ar
    60     1     9    1
    61     2     8    1
    62    55    57    1
    63    55    58    1
    64    55    56    1
    65    10     9    1
    66     9    11    1
