@<TRIPOS>MOLECULE
mol_data/opt/m06hf/geoms/mol2/6ha12if-12id-13ei-.out
 48 51 0 0 0
SMALL
GASTEIGER

@<TRIPOS>ATOM
      1 C          -3.5443   -1.5587    1.2870 C.ar    1  LIG1        0.1169
      2 C          -2.3629   -1.6594    0.5222 C.ar    1  LIG1       -0.0221
      3 C          -2.1906   -0.7777   -0.5249 C.ar    1  LIG1       -0.0564
      4 C          -3.1661    0.1862   -0.7911 C.ar    1  LIG1       -0.0325
      5 C          -4.2800    0.2150    0.0407 C.ar    1  LIG1        0.1085
      6 N          -4.4737   -0.6410    1.0470 N.ar    1  LIG1       -0.2293
      7 H          -1.3037   -0.8388   -1.1423 H       1  LIG1        0.0619
      8 H          -1.6208   -2.4080    0.7630 H       1  LIG1        0.0652
      9 N          -3.7681   -2.3892    2.3593 N.pl3   1  LIG1       -0.3431
     10 H          -4.7070   -2.3550    2.7269 H       1  LIG1        0.1437
     11 H          -3.3167   -3.2892    2.3693 H       1  LIG1        0.1437
     12 H          -3.0797    0.8655   -1.6257 H       1  LIG1        0.0640
     13 C          -5.3361    1.2280   -0.1652 C.ar    1  LIG1        0.1605
     14 C          -5.2838    2.5109   -0.6324 C.ar    1  LIG1        0.0391
     15 C          -6.6429    2.9637   -0.5878 C.ar    1  LIG1        0.1694
     16 C          -7.3934    1.9436   -0.0892 C.ar    1  LIG1        0.2123
     17 O          -6.5956    0.8799    0.1661 O.2     1  LIG1       -0.4461
     18 C          -4.1121    3.3496   -1.0729 C.3     1  LIG1       -0.0325
     19 H          -4.3220    4.3944   -0.8467 H       1  LIG1        0.0280
     20 H          -3.9505    3.2596   -2.1490 H       1  LIG1        0.0280
     21 H          -3.2070    3.0435   -0.5494 H       1  LIG1        0.0280
     22 O          -7.0376    4.1983   -0.9815 O.3     1  LIG1       -0.5029
     23 H          -8.0011    4.2263   -1.0434 H       1  LIG1        0.2923
     24 C          -8.8196    1.8823    0.1737 C.ar    1  LIG1        0.1785
     25 C          -9.6599    2.7836    0.7467 C.ar    1  LIG1        0.0166
     26 C         -10.9716    2.1821    0.6572 C.ar    1  LIG1        0.1025
     27 C         -10.8147    0.9701    0.0428 C.ar    1  LIG1        0.1706
     28 O          -9.5142    0.7932   -0.2552 O.2     1  LIG1       -0.4485
     29 C          -9.3259    4.0931    1.4103 C.3     1  LIG1       -0.0348
     30 H          -9.7894    4.1258    2.3965 H       1  LIG1        0.0279
     31 H          -9.7144    4.9320    0.8295 H       1  LIG1        0.0279
     32 H          -8.2459    4.1937    1.5144 H       1  LIG1        0.0279
     33 N         -13.0296    3.2857    1.7488 N.1     1  LIG1       -0.1907
     34 C         -12.1474    2.7582    1.2370 C.1     1  LIG1        0.1033
     35 C         -11.6897   -0.1303   -0.3172 C.ar    1  LIG1        0.0992
     36 C         -13.0451   -0.1988   -0.6002 C.ar    1  LIG1        0.0558
     37 C         -13.3445   -1.5593   -0.9178 C.ar    1  LIG1       -0.0171
     38 C         -12.1607   -2.2506   -0.8245 C.ar    1  LIG1        0.0064
     39 N         -11.1730   -1.3823   -0.4669 N.ar    1  LIG1       -0.3570
     40 H         -10.1990   -1.6056   -0.3276 H       1  LIG1        0.1655
     41 H         -11.9551   -3.2946   -0.9887 H       1  LIG1        0.0810
     42 C         -13.9716    0.8898   -0.6352 C.1     1  LIG1       -0.0672
     43 C         -14.7581    1.7975   -0.6763 C.1     1  LIG1       -0.1138
     44 H         -15.4395    2.6164   -0.6854 H       1  LIG1        0.1232
     45 C         -14.7021   -2.0909   -1.2945 C.3     1  LIG1       -0.0371
     46 H         -14.6444   -3.1588   -1.5031 H       1  LIG1        0.0278
     47 H         -15.0746   -1.5766   -2.1809 H       1  LIG1        0.0278
     48 H         -15.4106   -1.9258   -0.4820 H       1  LIG1        0.0278
@<TRIPOS>BOND
     1    47    45    1
     2    20    18    1
     3    12     4    1
     4    46    45    1
     5    45    37    1
     6    45    48    1
     7     7     3    1
     8    18    19    1
     9    18    14    1
    10    18    21    1
    11    23    22    1
    12    41    38    1
    13    22    15    1
    14    37    38   ar
    15    37    36   ar
    16    38    39   ar
    17     4     3   ar
    18     4     5   ar
    19    44    43    1
    20    43    42    3
    21    42    36    1
    22    14    15   ar
    23    14    13   ar
    24    36    35   ar
    25    15    16   ar
    26     3     2   ar
    27    39    40    1
    28    39    35   ar
    29    35    27    1
    30    28    27   ar
    31    28    24   ar
    32    13     5    1
    33    13    17   ar
    34    16    17   ar
    35    16    24    1
    36     5     6   ar
    37    27    26   ar
    38    24    25   ar
    39     2     8    1
    40     2     1   ar
    41    26    25   ar
    42    26    34    1
    43    25    29    1
    44    31    29    1
    45     6     1   ar
    46    34    33    3
    47     1     9    1
    48    29    32    1
    49    29    30    1
    50     9    11    1
    51     9    10    1
