@<TRIPOS>MOLECULE
mol_data/opt/m06hf/geoms/mol2/6ha6ha-6ha-6ha.out
 46 49 0 0 0
SMALL
GASTEIGER

@<TRIPOS>ATOM
      1 C          -4.4560   -2.2420    0.1036 C.ar    1  LIG1        0.1168
      2 C          -3.0519   -2.3144    0.2070 C.ar    1  LIG1       -0.0221
      3 C          -2.3459   -1.1297    0.2248 C.ar    1  LIG1       -0.0565
      4 C          -3.0216    0.0904    0.1328 C.ar    1  LIG1       -0.0355
      5 C          -4.4096    0.0561    0.0159 C.ar    1  LIG1        0.0764
      6 N          -5.1051   -1.0872    0.0076 N.ar    1  LIG1       -0.2323
      7 H          -1.2681   -1.1442    0.3241 H       1  LIG1        0.0619
      8 H          -2.5591   -3.2737    0.2882 H       1  LIG1        0.0652
      9 N          -5.2297   -3.3784    0.1338 N.pl3   1  LIG1       -0.3431
     10 H          -6.1873   -3.2424   -0.1536 H       1  LIG1        0.1437
     11 H          -4.8051   -4.2495   -0.1407 H       1  LIG1        0.1437
     12 H          -2.4972    1.0338    0.1860 H       1  LIG1        0.0639
     13 C          -4.8184    2.4829   -0.6921 C.ar    1  LIG1        0.1261
     14 C          -5.2297    1.3004   -0.0425 C.ar    1  LIG1        0.0399
     15 C          -6.4754    1.3240    0.5720 C.ar    1  LIG1       -0.0473
     16 C          -7.2441    2.4798    0.5804 C.ar    1  LIG1       -0.0348
     17 C          -6.7425    3.6108   -0.0672 C.ar    1  LIG1        0.0764
     18 N          -5.5563    3.5907   -0.6860 N.ar    1  LIG1       -0.2317
     19 H          -6.8173    0.4196    1.0592 H       1  LIG1        0.0626
     20 N          -3.6158    2.5715   -1.3705 N.pl3   1  LIG1       -0.3426
     21 H          -3.2650    1.7064   -1.7592 H       1  LIG1        0.1437
     22 H          -3.5828    3.3608   -2.0012 H       1  LIG1        0.1437
     23 H          -8.1855    2.5158    1.1078 H       1  LIG1        0.0639
     24 C          -6.9032    6.1642   -0.1239 C.ar    1  LIG1        0.1261
     25 C          -7.5210    4.8794   -0.0973 C.ar    1  LIG1        0.0399
     26 C          -8.9078    4.8589   -0.0675 C.ar    1  LIG1       -0.0473
     27 C          -9.6518    6.0352   -0.0400 C.ar    1  LIG1       -0.0348
     28 C          -8.9486    7.2402   -0.0422 C.ar    1  LIG1        0.0764
     29 N          -7.6172    7.2908   -0.0837 N.ar    1  LIG1       -0.2317
     30 H          -9.4222    3.9057   -0.0755 H       1  LIG1        0.0626
     31 N          -5.5559    6.3115   -0.1554 N.pl3   1  LIG1       -0.3426
     32 H          -5.0068    5.5210   -0.4622 H       1  LIG1        0.1437
     33 H          -5.2215    7.2526   -0.2848 H       1  LIG1        0.1437
     34 H         -10.7304    6.0238    0.0154 H       1  LIG1        0.0639
     35 C         -10.8975    8.8409   -0.5058 C.ar    1  LIG1        0.1254
     36 C          -9.6375    8.5595    0.0686 C.ar    1  LIG1        0.0399
     37 C          -9.0161    9.5836    0.7722 C.ar    1  LIG1       -0.0478
     38 C          -9.6525   10.8085    0.9426 C.ar    1  LIG1       -0.0428
     39 C         -10.9089   10.9599    0.3713 C.ar    1  LIG1        0.0297
     40 N         -11.5089   10.0133   -0.3451 N.ar    1  LIG1       -0.2401
     41 H          -8.0335    9.3903    1.1832 H       1  LIG1        0.0626
     42 H         -11.4593   11.8873    0.4804 H       1  LIG1        0.0830
     43 N         -11.5883    7.9111   -1.2658 N.pl3   1  LIG1       -0.3426
     44 H         -12.3477    8.3369   -1.7799 H       1  LIG1        0.1437
     45 H         -11.0228    7.2658   -1.8007 H       1  LIG1        0.1437
     46 H          -9.1951   11.6135    1.4987 H       1  LIG1        0.0633
@<TRIPOS>BOND
     1    22    20    1
     2    45    43    1
     3    44    43    1
     4    21    20    1
     5    20    13    1
     6    43    35    1
     7    13    18   ar
     8    13    14   ar
     9    18    17   ar
    10    35    40   ar
    11    35    36   ar
    12    32    31    1
    13    40    39   ar
    14    33    31    1
    15    31    24    1
    16    10     9    1
    17    11     9    1
    18    24    25   ar
    19    24    29   ar
    20    25    26   ar
    21    25    17    1
    22    29    28   ar
    23    30    26    1
    24    26    27   ar
    25    17    16   ar
    26    14     5    1
    27    14    15   ar
    28    28    27   ar
    29    28    36    1
    30    27    34    1
    31     6     5   ar
    32     6     1   ar
    33     5     4   ar
    34    36    37   ar
    35     1     9    1
    36     1     2   ar
    37     4    12    1
    38     4     3   ar
    39     2     3   ar
    40     2     8    1
    41     3     7    1
    42    39    42    1
    43    39    38   ar
    44    15    16   ar
    45    15    19    1
    46    16    23    1
    47    37    38   ar
    48    37    41    1
    49    38    46    1
