@<TRIPOS>MOLECULE
mol_data/opt/m06hf/geoms/mol2/6ha6ha6ha6ha.out
 46 49 0 0 0
SMALL
GASTEIGER

@<TRIPOS>ATOM
      1 C          -3.9091   -2.0609   -0.7268 C.ar    1  LIG1        0.1168
      2 C          -2.8343   -2.1730    0.1738 C.ar    1  LIG1       -0.0221
      3 C          -2.6472   -1.1499    1.0821 C.ar    1  LIG1       -0.0565
      4 C          -3.4987   -0.0454    1.0790 C.ar    1  LIG1       -0.0355
      5 C          -4.5210   -0.0066    0.1331 C.ar    1  LIG1        0.0764
      6 N          -4.7194   -1.0066   -0.7370 N.ar    1  LIG1       -0.2323
      7 H          -1.8440   -1.2123    1.8052 H       1  LIG1        0.0619
      8 H          -2.1971   -3.0463    0.1590 H       1  LIG1        0.0652
      9 N          -4.1971   -3.0642   -1.6242 N.pl3   1  LIG1       -0.3431
     10 H          -4.8008   -2.7916   -2.3855 H       1  LIG1        0.1437
     11 H          -3.4549   -3.7013   -1.8664 H       1  LIG1        0.1437
     12 H          -3.3917    0.7437    1.8080 H       1  LIG1        0.0639
     13 C          -6.7993    1.0604   -0.3281 C.ar    1  LIG1        0.1261
     14 C          -5.4327    1.1689    0.0517 C.ar    1  LIG1        0.0399
     15 C          -4.9781    2.4386    0.3767 C.ar    1  LIG1       -0.0473
     16 C          -5.8240    3.5414    0.3501 C.ar    1  LIG1       -0.0348
     17 C          -7.1507    3.3361   -0.0279 C.ar    1  LIG1        0.0764
     18 N          -7.6096    2.1216   -0.3457 N.ar    1  LIG1       -0.2317
     19 H          -3.9378    2.5718    0.6469 H       1  LIG1        0.0626
     20 N          -7.3588   -0.1329   -0.6563 N.pl3   1  LIG1       -0.3426
     21 H          -8.2782   -0.0873   -1.0656 H       1  LIG1        0.1437
     22 H          -6.7237   -0.8688   -0.9366 H       1  LIG1        0.1437
     23 H          -5.4702    4.5184    0.6413 H       1  LIG1        0.0639
     24 C          -9.4957    4.3446    0.1421 C.ar    1  LIG1        0.1261
     25 C          -8.1013    4.4799   -0.1055 C.ar    1  LIG1        0.0399
     26 C          -7.6461    5.7575   -0.4022 C.ar    1  LIG1       -0.0473
     27 C          -8.5088    6.8461   -0.4341 C.ar    1  LIG1       -0.0348
     28 C          -9.8591    6.6169   -0.1676 C.ar    1  LIG1        0.0764
     29 N         -10.3197    5.3962    0.1188 N.ar    1  LIG1       -0.2317
     30 H          -6.5966    5.9045   -0.6248 H       1  LIG1        0.0626
     31 N         -10.0567    3.1470    0.4477 N.pl3   1  LIG1       -0.3426
     32 H         -11.0639    3.1228    0.4482 H       1  LIG1        0.1437
     33 H          -9.5307    2.3220    0.1897 H       1  LIG1        0.1437
     34 H          -8.1408    7.8417   -0.6293 H       1  LIG1        0.0639
     35 C         -11.9961    7.7834    0.6159 C.ar    1  LIG1        0.1254
     36 C         -10.8391    7.7380   -0.2133 C.ar    1  LIG1        0.0399
     37 C         -10.6415    8.8057   -1.0791 C.ar    1  LIG1       -0.0478
     38 C         -11.5214    9.8839   -1.1004 C.ar    1  LIG1       -0.0428
     39 C         -12.5966    9.8382   -0.2228 C.ar    1  LIG1        0.0297
     40 N         -12.8343    8.8258    0.6027 N.ar    1  LIG1       -0.2401
     41 H          -9.7986    8.7813   -1.7593 H       1  LIG1        0.0626
     42 H         -13.3138   10.6507   -0.1863 H       1  LIG1        0.0830
     43 N         -12.2910    6.7892    1.4917 N.pl3   1  LIG1       -0.3426
     44 H         -13.1872    6.8661    1.9449 H       1  LIG1        0.1437
     45 H         -11.8750    5.8843    1.3204 H       1  LIG1        0.1437
     46 H         -11.3834   10.7180   -1.7717 H       1  LIG1        0.0633
@<TRIPOS>BOND
     1    10     9    1
     2    11     9    1
     3    46    38    1
     4    41    37    1
     5     9     1    1
     6    38    37   ar
     7    38    39   ar
     8    37    36   ar
     9    21    20    1
    10    22    20    1
    11     6     1   ar
    12     6     5   ar
    13     1     2   ar
    14    20    13    1
    15    34    27    1
    16    30    26    1
    17    27    26   ar
    18    27    28   ar
    19    26    25   ar
    20    18    13   ar
    21    18    17   ar
    22    13    14   ar
    23    39    42    1
    24    39    40   ar
    25    36    28    1
    26    36    35   ar
    27    28    29   ar
    28    25    17    1
    29    25    24   ar
    30    17    16   ar
    31    14     5    1
    32    14    15   ar
    33    29    24   ar
    34     5     4   ar
    35    24    31    1
    36     8     2    1
    37     2     3   ar
    38    33    31    1
    39    16    15   ar
    40    16    23    1
    41    15    19    1
    42    31    32    1
    43    40    35   ar
    44    35    43    1
    45     4     3   ar
    46     4    12    1
    47     3     7    1
    48    45    43    1
    49    43    44    1
