@<TRIPOS>MOLECULE
mol_data/opt/m06hf/geoms/mol2/6ha6ha-.out
 24 25 0 0 0
SMALL
GASTEIGER

@<TRIPOS>ATOM
      1 C          -4.5044   -2.0543   -0.2974 C.ar    1  LIG1        0.1168
      2 C          -3.1491   -2.1313    0.0795 C.ar    1  LIG1       -0.0221
      3 C          -2.5193   -0.9624    0.4560 C.ar    1  LIG1       -0.0565
      4 C          -3.2195    0.2462    0.4459 C.ar    1  LIG1       -0.0355
      5 C          -4.5533    0.2206    0.0418 C.ar    1  LIG1        0.0764
      6 N          -5.1762   -0.9088   -0.3151 N.ar    1  LIG1       -0.2323
      7 H          -1.4836   -0.9850    0.7705 H       1  LIG1        0.0619
      8 H          -2.6359   -3.0830    0.0856 H       1  LIG1        0.0652
      9 N          -5.2138   -3.1856   -0.6354 N.pl3   1  LIG1       -0.3431
     10 H          -6.0959   -3.0020   -1.0902 H       1  LIG1        0.1437
     11 H          -4.6965   -3.9768   -0.9836 H       1  LIG1        0.1437
     12 H          -2.7626    1.1721    0.7643 H       1  LIG1        0.0639
     13 C          -4.9133    2.7335   -0.2968 C.ar    1  LIG1        0.1254
     14 C          -5.4005    1.4497    0.0347 C.ar    1  LIG1        0.0399
     15 C          -6.7474    1.3443    0.3588 C.ar    1  LIG1       -0.0478
     16 C          -7.5518    2.4783    0.4025 C.ar    1  LIG1       -0.0428
     17 C          -6.9580    3.6950    0.0942 C.ar    1  LIG1        0.0297
     18 N          -5.6819    3.8205   -0.2597 N.ar    1  LIG1       -0.2401
     19 H          -7.1402    0.3603    0.5811 H       1  LIG1        0.0626
     20 H          -7.5323    4.6136    0.1184 H       1  LIG1        0.0830
     21 N          -3.5962    2.9509   -0.6685 N.pl3   1  LIG1       -0.3426
     22 H          -3.1465    2.1991   -1.1731 H       1  LIG1        0.1437
     23 H          -3.4677    3.8695   -1.0709 H       1  LIG1        0.1437
     24 H          -8.5974    2.4230    0.6665 H       1  LIG1        0.0633
@<TRIPOS>BOND
     1    22    21    1
     2    10     9    1
     3    23    21    1
     4    11     9    1
     5    21    13    1
     6     9     1    1
     7     6     1   ar
     8     6     5   ar
     9     1     2   ar
    10    13    18   ar
    11    13    14   ar
    12    18    17   ar
    13    14     5    1
    14    14    15   ar
    15     5     4   ar
    16     2     8    1
    17     2     3   ar
    18    17    20    1
    19    17    16   ar
    20    15    16   ar
    21    15    19    1
    22    16    24    1
    23     4     3   ar
    24     4    12    1
    25     3     7    1
