@<TRIPOS>MOLECULE
mol_data/opt/m06hf/geoms/mol2/6ha6ha-4ha6ha.out
 47 50 0 0 0
SMALL
GASTEIGER

@<TRIPOS>ATOM
      1 C          -4.4555   -2.2352    0.1377 C.ar    1  LIG1        0.1168
      2 C          -3.0480   -2.3125    0.0985 C.ar    1  LIG1       -0.0221
      3 C          -2.3407   -1.1305    0.0225 C.ar    1  LIG1       -0.0565
      4 C          -3.0188    0.0906   -0.0240 C.ar    1  LIG1       -0.0355
      5 C          -4.4119    0.0603    0.0015 C.ar    1  LIG1        0.0764
      6 N          -5.1077   -1.0792    0.0866 N.ar    1  LIG1       -0.2323
      7 H          -1.2582   -1.1484    0.0120 H       1  LIG1        0.0619
      8 H          -2.5525   -3.2726    0.1457 H       1  LIG1        0.0652
      9 N          -5.2264   -3.3664    0.2682 N.pl3   1  LIG1       -0.3431
     10 H          -6.2068   -3.2307    0.0724 H       1  LIG1        0.1437
     11 H          -4.8336   -4.2462   -0.0248 H       1  LIG1        0.1437
     12 H          -2.4905    1.0330   -0.0457 H       1  LIG1        0.0639
     13 C          -4.8876    2.4645   -0.7356 C.ar    1  LIG1        0.1261
     14 C          -5.2291    1.3084   -0.0033 C.ar    1  LIG1        0.0399
     15 C          -6.3979    1.3622    0.7456 C.ar    1  LIG1       -0.0473
     16 C          -7.1601    2.5220    0.7922 C.ar    1  LIG1       -0.0349
     17 C          -6.7332    3.6224    0.0468 C.ar    1  LIG1        0.0749
     18 N          -5.6209    3.5742   -0.6950 N.ar    1  LIG1       -0.2317
     19 H          -6.6860    0.4790    1.3013 H       1  LIG1        0.0626
     20 N          -3.7616    2.5235   -1.5394 N.pl3   1  LIG1       -0.3426
     21 H          -3.4593    1.6438   -1.9358 H       1  LIG1        0.1437
     22 H          -3.7984    3.2907   -2.1970 H       1  LIG1        0.1437
     23 H          -8.0414    2.5875    1.4124 H       1  LIG1        0.0639
     24 C          -6.9023    6.1582   -0.0219 C.ar    1  LIG1        0.0344
     25 C          -7.7169    7.3017    0.0083 C.ar    1  LIG1       -0.0326
     26 C          -7.5223    4.8890    0.0354 C.ar    1  LIG1        0.0211
     27 C          -9.1023    7.2145    0.0829 C.ar    1  LIG1       -0.0128
     28 H          -7.2490    8.2782   -0.0462 H       1  LIG1        0.0642
     29 C          -8.9165    4.8201    0.0933 C.ar    1  LIG1       -0.0502
     30 C          -9.7139    5.9548    0.1182 C.ar    1  LIG1       -0.0532
     31 H          -9.3863    3.8441    0.1008 H       1  LIG1        0.0625
     32 N          -5.5320    6.2921   -0.0583 N.pl3   1  LIG1       -0.3574
     33 H          -5.0373    5.5009   -0.4498 H       1  LIG1        0.1423
     34 H          -5.1798    7.2033   -0.3062 H       1  LIG1        0.1423
     35 H         -10.7915    5.8767    0.1701 H       1  LIG1        0.0624
     36 C         -11.0083    8.6770   -0.7414 C.ar    1  LIG1        0.1239
     37 C          -9.9165    8.4636    0.1366 C.ar    1  LIG1        0.0217
     38 C          -9.6241    9.4743    1.0398 C.ar    1  LIG1       -0.0493
     39 C         -10.3933   10.6373    1.0747 C.ar    1  LIG1       -0.0429
     40 C         -11.4429   10.7331    0.1737 C.ar    1  LIG1        0.0297
     41 N         -11.7420    9.7869   -0.7149 N.ar    1  LIG1       -0.2401
     42 H          -8.8004    9.3338    1.7297 H       1  LIG1        0.0625
     43 H         -12.0779   11.6114    0.1548 H       1  LIG1        0.0830
     44 N         -11.3800    7.7267   -1.6650 N.pl3   1  LIG1       -0.3427
     45 H         -12.0073    8.0733   -2.3755 H       1  LIG1        0.1437
     46 H         -10.6757    7.0675   -1.9622 H       1  LIG1        0.1437
     47 H         -10.1888   11.4322    1.7765 H       1  LIG1        0.0633
@<TRIPOS>BOND
     1    45    44    1
     2    22    20    1
     3    46    44    1
     4    21    20    1
     5    44    36    1
     6    20    13    1
     7    36    41   ar
     8    36    37   ar
     9    13    18   ar
    10    13    14   ar
    11    41    40   ar
    12    18    17   ar
    13    33    32    1
    14    34    32    1
    15    32    24    1
    16    28    25    1
    17    12     4    1
    18    11     9    1
    19     4     5   ar
    20     4     3   ar
    21    24    25   ar
    22    24    26   ar
    23    14     5    1
    24    14    15   ar
    25     5     6   ar
    26    25    27   ar
    27     7     3    1
    28     3     2   ar
    29    26    17    1
    30    26    29   ar
    31    17    16   ar
    32    10     9    1
    33    27    30   ar
    34    27    37    1
    35     6     1   ar
    36    29    31    1
    37    29    30   ar
    38     2     1   ar
    39     2     8    1
    40    30    35    1
    41    37    38   ar
    42     1     9    1
    43    43    40    1
    44    40    39   ar
    45    15    16   ar
    46    15    19    1
    47    16    23    1
    48    38    39   ar
    49    38    42    1
    50    39    47    1
