@<TRIPOS>MOLECULE
mol_data/opt/m06hf/geoms/mol2/6ha6ha-6ha-6ha-.out
 46 49 0 0 0
SMALL
GASTEIGER

@<TRIPOS>ATOM
      1 C          -4.5601   -2.2753   -0.0129 C.ar    1  LIG1        0.1168
      2 C          -3.1623   -2.3940    0.1272 C.ar    1  LIG1       -0.0221
      3 C          -2.4234   -1.2332    0.2206 C.ar    1  LIG1       -0.0565
      4 C          -3.0606    0.0096    0.1647 C.ar    1  LIG1       -0.0355
      5 C          -4.4448    0.0217    0.0059 C.ar    1  LIG1        0.0764
      6 N          -5.1728   -1.0983   -0.0735 N.ar    1  LIG1       -0.2323
      7 H          -1.3500   -1.2851    0.3499 H       1  LIG1        0.0619
      8 H          -2.6994   -3.3701    0.1768 H       1  LIG1        0.0652
      9 N          -5.3657   -3.3881   -0.0607 N.pl3   1  LIG1       -0.3431
     10 H          -6.3100   -3.2128   -0.3694 H       1  LIG1        0.1437
     11 H          -4.9564   -4.2597   -0.3562 H       1  LIG1        0.1437
     12 H          -2.5114    0.9339    0.2744 H       1  LIG1        0.0639
     13 C          -4.7698    2.4763   -0.6434 C.ar    1  LIG1        0.1261
     14 C          -5.2259    1.2916   -0.0285 C.ar    1  LIG1        0.0399
     15 C          -6.4809    1.3366    0.5645 C.ar    1  LIG1       -0.0473
     16 C          -7.2201    2.5114    0.5818 C.ar    1  LIG1       -0.0348
     17 C          -6.6813    3.6395   -0.0404 C.ar    1  LIG1        0.0764
     18 N          -5.4828    3.6004   -0.6336 N.ar    1  LIG1       -0.2317
     19 H          -6.8560    0.4319    1.0260 H       1  LIG1        0.0626
     20 N          -3.5495    2.5488   -1.2893 N.pl3   1  LIG1       -0.3426
     21 H          -3.2023    1.6819   -1.6767 H       1  LIG1        0.1437
     22 H          -3.4800    3.3460   -1.9066 H       1  LIG1        0.1437
     23 H          -8.1695    2.5587    1.0931 H       1  LIG1        0.0639
     24 C          -6.7978    6.1942   -0.1334 C.ar    1  LIG1        0.1261
     25 C          -7.4344    4.9231   -0.0800 C.ar    1  LIG1        0.0399
     26 C          -8.8228    4.9300   -0.0408 C.ar    1  LIG1       -0.0473
     27 C          -9.5447    6.1159   -0.0336 C.ar    1  LIG1       -0.0348
     28 C          -8.8320    7.3159   -0.0828 C.ar    1  LIG1        0.0764
     29 N          -7.4977    7.3327   -0.1234 N.ar    1  LIG1       -0.2317
     30 H          -9.3551    3.9868   -0.0271 H       1  LIG1        0.0626
     31 N          -5.4469    6.3236   -0.1642 N.pl3   1  LIG1       -0.3426
     32 H          -4.9187    5.5107   -0.4523 H       1  LIG1        0.1437
     33 H          -5.1002    7.2470   -0.3690 H       1  LIG1        0.1437
     34 H         -10.6212    6.1090    0.0374 H       1  LIG1        0.0639
     35 C          -8.9915    9.8174    0.4339 C.ar    1  LIG1        0.1254
     36 C          -9.5478    8.6223   -0.1062 C.ar    1  LIG1        0.0399
     37 C         -10.8206    8.7130   -0.6558 C.ar    1  LIG1       -0.0478
     38 C         -11.5249    9.9125   -0.6430 C.ar    1  LIG1       -0.0428
     39 C         -10.8962   11.0067   -0.0626 C.ar    1  LIG1        0.0297
     40 N          -9.6735   10.9691    0.4520 N.ar    1  LIG1       -0.2401
     41 H         -11.2576    7.8366   -1.1190 H       1  LIG1        0.0626
     42 H         -11.3950   11.9684   -0.0161 H       1  LIG1        0.0830
     43 N          -7.7562    9.8486    0.9916 N.pl3   1  LIG1       -0.3426
     44 H          -7.1175    9.1028    0.7524 H       1  LIG1        0.1437
     45 H          -7.4194   10.7613    1.2512 H       1  LIG1        0.1437
     46 H         -12.5129    9.9965   -1.0699 H       1  LIG1        0.0633
@<TRIPOS>BOND
     1    22    20    1
     2    21    20    1
     3    20    13    1
     4    41    37    1
     5    46    38    1
     6    37    38   ar
     7    37    36   ar
     8    13    18   ar
     9    13    14   ar
    10    38    39   ar
    11    18    17   ar
    12    32    31    1
    13    10     9    1
    14    33    31    1
    15    11     9    1
    16    31    24    1
    17    24    29   ar
    18    24    25   ar
    19    29    28   ar
    20    36    28    1
    21    36    35   ar
    22    28    27   ar
    23    25    26   ar
    24    25    17    1
    25     6     1   ar
    26     6     5   ar
    27    39    42    1
    28    39    40   ar
    29     9     1    1
    30    26    27   ar
    31    26    30    1
    32    17    16   ar
    33    27    34    1
    34    14     5    1
    35    14    15   ar
    36     1     2   ar
    37     5     4   ar
    38     2     8    1
    39     2     3   ar
    40     4     3   ar
    41     4    12    1
    42     3     7    1
    43    35    40   ar
    44    35    43    1
    45    15    16   ar
    46    15    19    1
    47    16    23    1
    48    44    43    1
    49    43    45    1
