@<TRIPOS>MOLECULE
mol_data/opt/m06hf/geoms/mol2/6ha6ha6ha.out
 35 37 0 0 0
SMALL
GASTEIGER

@<TRIPOS>ATOM
      1 C          -4.2028   -2.1037   -0.5508 C.ar    1  LIG1        0.1168
      2 C          -2.9723   -2.1324    0.1303 C.ar    1  LIG1       -0.0221
      3 C          -2.5822   -0.9897    0.8007 C.ar    1  LIG1       -0.0565
      4 C          -3.3907    0.1461    0.7795 C.ar    1  LIG1       -0.0355
      5 C          -4.5818    0.0919    0.0573 C.ar    1  LIG1        0.0764
      6 N          -4.9737   -1.0206   -0.5795 N.ar    1  LIG1       -0.2323
      7 H          -1.6514   -0.9810    1.3534 H       1  LIG1        0.0619
      8 H          -2.3723   -3.0318    0.1382 H       1  LIG1        0.0652
      9 N          -4.6889   -3.2188   -1.1965 N.pl3   1  LIG1       -0.3431
     10 H          -5.4229   -3.0323   -1.8634 H       1  LIG1        0.1437
     11 H          -4.0240   -3.9241   -1.4717 H       1  LIG1        0.1437
     12 H          -3.1214    1.0333    1.3325 H       1  LIG1        0.0639
     13 C          -6.8810    1.1967   -0.1084 C.ar    1  LIG1        0.1261
     14 C          -5.4643    1.2883   -0.0342 C.ar    1  LIG1        0.0399
     15 C          -4.9251    2.5670   -0.0160 C.ar    1  LIG1       -0.0473
     16 C          -5.7351    3.6958   -0.0451 C.ar    1  LIG1       -0.0348
     17 C          -7.1162    3.5068   -0.1028 C.ar    1  LIG1        0.0764
     18 N          -7.6554    2.2844   -0.1264 N.ar    1  LIG1       -0.2317
     19 H          -3.8486    2.6835    0.0127 H       1  LIG1        0.0626
     20 N          -7.5225   -0.0011   -0.1270 N.pl3   1  LIG1       -0.3426
     21 H          -8.5058    0.0348   -0.3440 H       1  LIG1        0.1437
     22 H          -6.9764   -0.8030   -0.4131 H       1  LIG1        0.1437
     23 H          -5.3100    4.6865    0.0078 H       1  LIG1        0.0639
     24 C          -9.3428    4.6480    0.4219 C.ar    1  LIG1        0.1254
     25 C          -8.0398    4.6746   -0.1534 C.ar    1  LIG1        0.0399
     26 C          -7.6433    5.8581   -0.7626 C.ar    1  LIG1       -0.0478
     27 C          -8.4755    6.9735   -0.7727 C.ar    1  LIG1       -0.0428
     28 C          -9.7109    6.8439   -0.1514 C.ar    1  LIG1        0.0297
     29 N         -10.1371    5.7242    0.4208 N.ar    1  LIG1       -0.2401
     30 H          -6.6779    5.8997   -1.2525 H       1  LIG1        0.0626
     31 H         -10.4023    7.6786   -0.1195 H       1  LIG1        0.0830
     32 N          -9.8350    3.5420    1.0360 N.pl3   1  LIG1       -0.3426
     33 H         -10.8018    3.5962    1.3132 H       1  LIG1        0.1437
     34 H          -9.4139    2.6545    0.7992 H       1  LIG1        0.1437
     35 H          -8.1824    7.8981   -1.2467 H       1  LIG1        0.0633
@<TRIPOS>BOND
     1    10     9    1
     2    11     9    1
     3    30    26    1
     4    35    27    1
     5     9     1    1
     6    27    26   ar
     7    27    28   ar
     8    26    25   ar
     9     6     1   ar
    10     6     5   ar
    11     1     2   ar
    12    22    20    1
    13    21    20    1
    14    25    17    1
    15    25    24   ar
    16    28    31    1
    17    28    29   ar
    18    20    13    1
    19    18    13   ar
    20    18    17   ar
    21    13    14   ar
    22    17    16   ar
    23    16    15   ar
    24    16    23    1
    25    14    15   ar
    26    14     5    1
    27    15    19    1
    28     5     4   ar
    29     2     8    1
    30     2     3   ar
    31    29    24   ar
    32    24    32    1
    33     4     3   ar
    34     4    12    1
    35    34    32    1
    36     3     7    1
    37    32    33    1
