@<TRIPOS>MOLECULE
mol_data/opt/m06hf/geoms/mol2/6ha6ha-6ha6ha-.out
 46 49 0 0 0
SMALL
GASTEIGER

@<TRIPOS>ATOM
      1 C          -4.4017   -2.2370   -0.1544 C.ar    1  LIG1        0.1168
      2 C          -3.0457   -2.3014    0.2271 C.ar    1  LIG1       -0.0221
      3 C          -2.4104   -1.1196    0.5464 C.ar    1  LIG1       -0.0565
      4 C          -3.1053    0.0912    0.4772 C.ar    1  LIG1       -0.0355
      5 C          -4.4376    0.0521    0.0716 C.ar    1  LIG1        0.0764
      6 N          -5.0666   -1.0902   -0.2315 N.ar    1  LIG1       -0.2323
      7 H          -1.3755   -1.1312    0.8641 H       1  LIG1        0.0619
      8 H          -2.5384   -3.2550    0.2817 H       1  LIG1        0.0652
      9 N          -5.1157   -3.3796   -0.4320 N.pl3   1  LIG1       -0.3431
     10 H          -5.9989   -3.2198   -0.8927 H       1  LIG1        0.1437
     11 H          -4.6056   -4.1972   -0.7255 H       1  LIG1        0.1437
     12 H          -2.6440    1.0269    0.7587 H       1  LIG1        0.0639
     13 C          -4.7981    2.5508   -0.3800 C.ar    1  LIG1        0.1261
     14 C          -5.2827    1.2799    0.0068 C.ar    1  LIG1        0.0399
     15 C          -6.6283    1.1945    0.3355 C.ar    1  LIG1       -0.0473
     16 C          -7.4404    2.3239    0.3187 C.ar    1  LIG1       -0.0348
     17 C          -6.8581    3.5360   -0.0559 C.ar    1  LIG1        0.0764
     18 N          -5.5713    3.6323   -0.3985 N.ar    1  LIG1       -0.2317
     19 H          -7.0215    0.2269    0.6197 H       1  LIG1        0.0626
     20 N          -3.4844    2.7538   -0.7600 N.pl3   1  LIG1       -0.3426
     21 H          -3.0188    1.9708   -1.1974 H       1  LIG1        0.1437
     22 H          -3.3506    3.6445   -1.2184 H       1  LIG1        0.1437
     23 H          -8.4779    2.2812    0.6177 H       1  LIG1        0.0639
     24 C          -8.9776    4.9227   -0.4349 C.ar    1  LIG1        0.1261
     25 C          -7.6200    4.8173   -0.0522 C.ar    1  LIG1        0.0399
     26 C          -6.9838    5.9876    0.3361 C.ar    1  LIG1       -0.0473
     27 C          -7.6750    7.1946    0.3799 C.ar    1  LIG1       -0.0348
     28 C          -9.0182    7.1875    0.0011 C.ar    1  LIG1        0.0764
     29 N          -9.6389    6.0749   -0.3998 N.ar    1  LIG1       -0.2317
     30 H          -5.9401    5.9301    0.6180 H       1  LIG1        0.0626
     31 N          -9.7070    3.8311   -0.8663 N.pl3   1  LIG1       -0.3426
     32 H         -10.5696    4.0983   -1.3198 H       1  LIG1        0.1437
     33 H          -9.1882    3.0945   -1.3241 H       1  LIG1        0.1437
     34 H          -7.2064    8.1050    0.7257 H       1  LIG1        0.0639
     35 C          -9.3983    9.7113   -0.2144 C.ar    1  LIG1        0.1254
     36 C          -9.8714    8.4095    0.0658 C.ar    1  LIG1        0.0399
     37 C         -11.2127    8.2785    0.4034 C.ar    1  LIG1       -0.0478
     38 C         -12.0251    9.4022    0.5111 C.ar    1  LIG1       -0.0428
     39 C         -11.4433   10.6369    0.2552 C.ar    1  LIG1        0.0297
     40 N         -10.1739   10.7891   -0.1113 N.ar    1  LIG1       -0.2401
     41 H         -11.5954    7.2818    0.5835 H       1  LIG1        0.0626
     42 H         -12.0226   11.5495    0.3351 H       1  LIG1        0.0830
     43 N          -8.0927    9.9543   -0.6058 N.pl3   1  LIG1       -0.3426
     44 H          -7.6430    9.2231   -1.1399 H       1  LIG1        0.1437
     45 H          -7.9788   10.8867   -0.9789 H       1  LIG1        0.1437
     46 H         -13.0664    9.3260    0.7863 H       1  LIG1        0.0633
@<TRIPOS>BOND
     1    33    31    1
     2    32    31    1
     3    22    20    1
     4    21    20    1
     5    44    43    1
     6    45    43    1
     7    10     9    1
     8    31    24    1
     9    20    13    1
    10    11     9    1
    11    43    35    1
    12    24    29   ar
    13    24    25   ar
    14     9     1    1
    15    29    28   ar
    16    18    13   ar
    17    18    17   ar
    18    13    14   ar
    19     6     1   ar
    20     6     5   ar
    21    35    40   ar
    22    35    36   ar
    23     1     2   ar
    24    40    39   ar
    25    17    25    1
    26    17    16   ar
    27    25    26   ar
    28    28    36    1
    29    28    27   ar
    30    14     5    1
    31    14    15   ar
    32    36    37   ar
    33     5     4   ar
    34     2     8    1
    35     2     3   ar
    36    39    42    1
    37    39    38   ar
    38    16    15   ar
    39    16    23    1
    40    15    19    1
    41    26    27   ar
    42    26    30    1
    43    27    34    1
    44    37    38   ar
    45    37    41    1
    46     4     3   ar
    47     4    12    1
    48    38    46    1
    49     3     7    1
