@<TRIPOS>MOLECULE
mol_data/opt/m06hf/geoms/mol2/6ha6ha6ha-6ha-.out
 46 49 0 0 0
SMALL
GASTEIGER

@<TRIPOS>ATOM
      1 C          -4.2603   -2.2235   -0.4854 C.ar    1  LIG1        0.1168
      2 C          -3.0458   -2.3161    0.2182 C.ar    1  LIG1       -0.0221
      3 C          -2.6159   -1.1998    0.9083 C.ar    1  LIG1       -0.0565
      4 C          -3.3696   -0.0268    0.8828 C.ar    1  LIG1       -0.0355
      5 C          -4.5464   -0.0180    0.1365 C.ar    1  LIG1        0.0764
      6 N          -4.9780   -1.1045   -0.5190 N.ar    1  LIG1       -0.2323
      7 H          -1.6971   -1.2406    1.4792 H       1  LIG1        0.0619
      8 H          -2.4890   -3.2428    0.2286 H       1  LIG1        0.0652
      9 N          -4.7875   -3.3095   -1.1476 N.pl3   1  LIG1       -0.3431
     10 H          -5.5030   -3.0849   -1.8227 H       1  LIG1        0.1437
     11 H          -4.1538   -4.0454   -1.4161 H       1  LIG1        0.1437
     12 H          -3.0703    0.8416    1.4500 H       1  LIG1        0.0639
     13 C          -6.7927    1.1918   -0.0561 C.ar    1  LIG1        0.1261
     14 C          -5.3706    1.2193    0.0387 C.ar    1  LIG1        0.0399
     15 C          -4.7726    2.4692    0.0666 C.ar    1  LIG1       -0.0473
     16 C          -5.5302    3.6378    0.0234 C.ar    1  LIG1       -0.0348
     17 C          -6.9160    3.5008   -0.0523 C.ar    1  LIG1        0.0764
     18 N          -7.5178    2.3111   -0.0867 N.ar    1  LIG1       -0.2317
     19 H          -3.6924    2.5356    0.1140 H       1  LIG1        0.0626
     20 N          -7.4845    0.0258   -0.0855 N.pl3   1  LIG1       -0.3426
     21 H          -8.4722    0.1091   -0.2648 H       1  LIG1        0.1437
     22 H          -6.9810   -0.8059   -0.3615 H       1  LIG1        0.1437
     23 H          -5.0696    4.6133    0.0833 H       1  LIG1        0.0639
     24 C          -7.5412    5.9061   -0.6762 C.ar    1  LIG1        0.1261
     25 C          -7.8331    4.6769   -0.0492 C.ar    1  LIG1        0.0399
     26 C          -9.0597    4.5782    0.5960 C.ar    1  LIG1       -0.0473
     27 C          -9.9270    5.6605    0.6478 C.ar    1  LIG1       -0.0348
     28 C          -9.5451    6.8427    0.0103 C.ar    1  LIG1        0.0764
     29 N          -8.3755    6.9428   -0.6297 N.ar    1  LIG1       -0.2317
     30 H          -9.3084    3.6357    1.0671 H       1  LIG1        0.0626
     31 N          -6.3683    6.1189   -1.3790 N.pl3   1  LIG1       -0.3426
     32 H          -5.9524    5.2995   -1.8010 H       1  LIG1        0.1437
     33 H          -6.4242    6.9240   -1.9876 H       1  LIG1        0.1437
     34 H         -10.8569    5.6029    1.1935 H       1  LIG1        0.0639
     35 C          -9.9536    9.3668   -0.0015 C.ar    1  LIG1        0.1254
     36 C         -10.4443    8.0301    0.0066 C.ar    1  LIG1        0.0399
     37 C         -11.8229    7.8637    0.0241 C.ar    1  LIG1       -0.0478
     38 C         -12.6769    8.9616    0.0674 C.ar    1  LIG1       -0.0428
     39 C         -12.0868   10.2187    0.0901 C.ar    1  LIG1        0.0297
     40 N         -10.7753   10.4209    0.0503 N.ar    1  LIG1       -0.2401
     41 H         -12.2322    6.8613   -0.0174 H       1  LIG1        0.0626
     42 H         -12.6983   11.1132    0.1320 H       1  LIG1        0.0830
     43 N          -8.6249    9.6458   -0.0233 N.pl3   1  LIG1       -0.3426
     44 H          -8.0028    8.9250   -0.3593 H       1  LIG1        0.1437
     45 H          -8.3910   10.6191   -0.1374 H       1  LIG1        0.1437
     46 H         -13.7502    8.8480    0.0770 H       1  LIG1        0.0633
@<TRIPOS>BOND
     1    33    31    1
     2    10     9    1
     3    32    31    1
     4    11     9    1
     5    31    24    1
     6     9     1    1
     7    24    29   ar
     8    24    25   ar
     9    29    28   ar
    10     6     1   ar
    11     6     5   ar
    12     1     2   ar
    13    22    20    1
    14    44    43    1
    15    21    20    1
    16    45    43    1
    17    18    13   ar
    18    18    17   ar
    19    20    13    1
    20    13    14   ar
    21    17    25    1
    22    17    16   ar
    23    25    26   ar
    24    43    35    1
    25    41    37    1
    26    35    36   ar
    27    35    40   ar
    28    36    28    1
    29    36    37   ar
    30    28    27   ar
    31    16    15   ar
    32    16    23    1
    33    37    38   ar
    34    14    15   ar
    35    14     5    1
    36    40    39   ar
    37    15    19    1
    38    38    46    1
    39    38    39   ar
    40    39    42    1
    41     5     4   ar
    42     2     8    1
    43     2     3   ar
    44    26    27   ar
    45    26    30    1
    46    27    34    1
    47     4     3   ar
    48     4    12    1
    49     3     7    1
