@<TRIPOS>MOLECULE
mol_data/opt/m06hf/geoms/mol2/6ha6ha6ha-6ha.out
 46 49 0 0 0
SMALL
GASTEIGER

@<TRIPOS>ATOM
      1 C          -4.1802   -2.1844   -0.4843 C.ar    1  LIG1        0.1168
      2 C          -2.9648   -2.2533    0.2202 C.ar    1  LIG1       -0.0221
      3 C          -2.5589   -1.1299    0.9134 C.ar    1  LIG1       -0.0565
      4 C          -3.3368    0.0272    0.8892 C.ar    1  LIG1       -0.0355
      5 C          -4.5126    0.0133    0.1413 C.ar    1  LIG1        0.0764
      6 N          -4.9215   -1.0810   -0.5165 N.ar    1  LIG1       -0.2323
      7 H          -1.6403   -1.1530    1.4856 H       1  LIG1        0.0619
      8 H          -2.3894   -3.1686    0.2296 H       1  LIG1        0.0652
      9 N          -4.6830   -3.2803   -1.1497 N.pl3   1  LIG1       -0.3431
     10 H          -5.4028   -3.0693   -1.8247 H       1  LIG1        0.1437
     11 H          -4.0326   -4.0003   -1.4209 H       1  LIG1        0.1437
     12 H          -3.0562    0.9009    1.4579 H       1  LIG1        0.0639
     13 C          -6.7824    1.1784   -0.0494 C.ar    1  LIG1        0.1261
     14 C          -5.3613    1.2340    0.0438 C.ar    1  LIG1        0.0399
     15 C          -4.7878    2.4957    0.0677 C.ar    1  LIG1       -0.0473
     16 C          -5.5684    3.6486    0.0217 C.ar    1  LIG1       -0.0348
     17 C          -6.9514    3.4842   -0.0516 C.ar    1  LIG1        0.0764
     18 N          -7.5298    2.2828   -0.0823 N.ar    1  LIG1       -0.2317
     19 H          -3.7091    2.5838    0.1134 H       1  LIG1        0.0626
     20 N          -7.4513   -0.0016   -0.0741 N.pl3   1  LIG1       -0.3426
     21 H          -8.4397    0.0625   -0.2579 H       1  LIG1        0.1437
     22 H          -6.9321   -0.8228   -0.3519 H       1  LIG1        0.1437
     23 H          -5.1284    4.6337    0.0732 H       1  LIG1        0.0639
     24 C          -7.6205    5.8785   -0.6818 C.ar    1  LIG1        0.1261
     25 C          -7.8896    4.6441   -0.0477 C.ar    1  LIG1        0.0399
     26 C          -9.1104    4.5242    0.6014 C.ar    1  LIG1       -0.0473
     27 C         -10.0002    5.5924    0.6496 C.ar    1  LIG1       -0.0348
     28 C          -9.6319    6.7744    0.0057 C.ar    1  LIG1        0.0764
     29 N          -8.4712    6.8993   -0.6430 N.ar    1  LIG1       -0.2317
     30 H          -9.3407    3.5796    1.0777 H       1  LIG1        0.0626
     31 N          -6.4502    6.1059   -1.3834 N.pl3   1  LIG1       -0.3426
     32 H          -6.0339    5.2990   -1.8281 H       1  LIG1        0.1437
     33 H          -6.5067    6.9331   -1.9616 H       1  LIG1        0.1437
     34 H         -10.9347    5.5294    1.1888 H       1  LIG1        0.0639
     35 C         -11.9003    7.9604   -0.0088 C.ar    1  LIG1        0.1254
     36 C         -10.4877    7.9964    0.0341 C.ar    1  LIG1        0.0399
     37 C          -9.8833    9.2460    0.0844 C.ar    1  LIG1       -0.0478
     38 C         -10.6576   10.4004    0.1465 C.ar    1  LIG1       -0.0428
     39 C         -12.0374   10.2446    0.1381 C.ar    1  LIG1        0.0297
     40 N         -12.6435    9.0640    0.0479 N.ar    1  LIG1       -0.2401
     41 H          -8.8015    9.2882    0.0792 H       1  LIG1        0.0626
     42 H         -12.6928   11.1062    0.1942 H       1  LIG1        0.0830
     43 N         -12.6056    6.7731   -0.1032 N.pl3   1  LIG1       -0.3426
     44 H         -13.5741    6.9267   -0.3486 H       1  LIG1        0.1437
     45 H         -12.1524    6.0212   -0.6041 H       1  LIG1        0.1437
     46 H         -10.2101   11.3816    0.2015 H       1  LIG1        0.0633
@<TRIPOS>BOND
     1    33    31    1
     2    32    31    1
     3    10     9    1
     4    11     9    1
     5    31    24    1
     6     9     1    1
     7    24    29   ar
     8    24    25   ar
     9    29    28   ar
    10    45    43    1
    11     6     1   ar
    12     6     5   ar
    13     1     2   ar
    14    22    20    1
    15    44    43    1
    16    21    20    1
    17    43    35    1
    18    18    17   ar
    19    18    13   ar
    20    20    13    1
    21    17    25    1
    22    17    16   ar
    23    13    14   ar
    24    25    26   ar
    25    35    36   ar
    26    35    40   ar
    27    28    36    1
    28    28    27   ar
    29    16    15   ar
    30    16    23    1
    31    36    37   ar
    32    14    15   ar
    33    14     5    1
    34    40    39   ar
    35    15    19    1
    36    41    37    1
    37    37    38   ar
    38    39    38   ar
    39    39    42    1
    40     5     4   ar
    41    38    46    1
    42     2     8    1
    43     2     3   ar
    44    26    27   ar
    45    26    30    1
    46    27    34    1
    47     4     3   ar
    48     4    12    1
    49     3     7    1
