@<TRIPOS>MOLECULE
mol_data/opt/m06hf/geoms/mol2/6ha6ha-6ha.out
 35 37 0 0 0
SMALL
GASTEIGER

@<TRIPOS>ATOM
      1 C          -4.4293   -2.1381   -0.1456 C.ar    1  LIG1        0.1168
      2 C          -3.0485   -2.1863    0.1339 C.ar    1  LIG1       -0.0221
      3 C          -2.4006   -0.9941    0.3826 C.ar    1  LIG1       -0.0565
      4 C          -3.1084    0.2101    0.3431 C.ar    1  LIG1       -0.0355
      5 C          -4.4672    0.1545    0.0392 C.ar    1  LIG1        0.0764
      6 N          -5.1080   -0.9975   -0.1934 N.ar    1  LIG1       -0.2323
      7 H          -1.3446   -0.9925    0.6207 H       1  LIG1        0.0619
      8 H          -2.5308   -3.1353    0.1672 H       1  LIG1        0.0652
      9 N          -5.1526   -3.2906   -0.3496 N.pl3   1  LIG1       -0.3431
     10 H          -6.0703   -3.1458   -0.7434 H       1  LIG1        0.1437
     11 H          -4.6592   -4.1092   -0.6673 H       1  LIG1        0.1437
     12 H          -2.6353    1.1547    0.5691 H       1  LIG1        0.0639
     13 C          -4.8778    2.6368   -0.4521 C.ar    1  LIG1        0.1261
     14 C          -5.3221    1.3766    0.0092 C.ar    1  LIG1        0.0399
     15 C          -6.6370    1.2964    0.4460 C.ar    1  LIG1       -0.0473
     16 C          -7.4548    2.4215    0.4592 C.ar    1  LIG1       -0.0348
     17 C          -6.9136    3.6229   -0.0003 C.ar    1  LIG1        0.0764
     18 N          -5.6583    3.7127   -0.4464 N.ar    1  LIG1       -0.2317
     19 H          -7.0002    0.3358    0.7885 H       1  LIG1        0.0626
     20 N          -3.5961    2.8360   -0.9330 N.pl3   1  LIG1       -0.3426
     21 H          -3.1594    2.0439   -1.3842 H       1  LIG1        0.1437
     22 H          -3.5064    3.7134   -1.4271 H       1  LIG1        0.1437
     23 H          -8.4663    2.3841    0.8377 H       1  LIG1        0.0639
     24 C          -9.0697    4.9838   -0.2308 C.ar    1  LIG1        0.1254
     25 C          -7.6819    4.9017    0.0219 C.ar    1  LIG1        0.0399
     26 C          -7.0121    6.0886    0.2912 C.ar    1  LIG1       -0.0478
     27 C          -7.7093    7.2905    0.3603 C.ar    1  LIG1       -0.0428
     28 C          -9.0788    7.2476    0.1350 C.ar    1  LIG1        0.0297
     29 N          -9.7393    6.1333   -0.1672 N.ar    1  LIG1       -0.2401
     30 H          -5.9420    6.0437    0.4505 H       1  LIG1        0.0626
     31 H          -9.6777    8.1496    0.1863 H       1  LIG1        0.0830
     32 N          -9.8288    3.8707   -0.5492 N.pl3   1  LIG1       -0.3426
     33 H         -10.7384    4.1242   -0.9105 H       1  LIG1        0.1437
     34 H          -9.3561    3.1372   -1.0593 H       1  LIG1        0.1437
     35 H          -7.2123    8.2227    0.5834 H       1  LIG1        0.0633
@<TRIPOS>BOND
     1    22    20    1
     2    21    20    1
     3    34    32    1
     4    20    13    1
     5    33    32    1
     6    10     9    1
     7    11     9    1
     8    32    24    1
     9    13    18   ar
    10    13    14   ar
    11    18    17   ar
    12     9     1    1
    13    24    29   ar
    14    24    25   ar
    15     6     1   ar
    16     6     5   ar
    17    29    28   ar
    18     1     2   ar
    19    17    25    1
    20    17    16   ar
    21    14     5    1
    22    14    15   ar
    23    25    26   ar
    24     5     4   ar
    25     2     8    1
    26     2     3   ar
    27    28    31    1
    28    28    27   ar
    29    26    27   ar
    30    26    30    1
    31     4     3   ar
    32     4    12    1
    33    27    35    1
    34     3     7    1
    35    15    16   ar
    36    15    19    1
    37    16    23    1
