@<TRIPOS>MOLECULE
mol_data/opt/m06hf/geoms/mol2/6ha6ha.out
 24 25 0 0 0
SMALL
GASTEIGER

@<TRIPOS>ATOM
      1 C          -4.4136   -2.0697   -0.3447 C.ar    1  LIG1        0.1168
      2 C          -3.0611   -2.0620    0.0386 C.ar    1  LIG1       -0.0221
      3 C          -2.5100   -0.8556    0.4250 C.ar    1  LIG1       -0.0565
      4 C          -3.2852    0.3029    0.4162 C.ar    1  LIG1       -0.0355
      5 C          -4.6114    0.2059   -0.0021 C.ar    1  LIG1        0.0764
      6 N          -5.1548   -0.9658   -0.3614 N.ar    1  LIG1       -0.2323
      7 H          -1.4772   -0.8140    0.7468 H       1  LIG1        0.0619
      8 H          -2.4893   -2.9796    0.0465 H       1  LIG1        0.0652
      9 N          -5.0521   -3.2415   -0.6905 N.pl3   1  LIG1       -0.3431
     10 H          -5.9164   -3.1128   -1.1957 H       1  LIG1        0.1437
     11 H          -4.4770   -4.0051   -1.0093 H       1  LIG1        0.1437
     12 H          -2.8836    1.2461    0.7548 H       1  LIG1        0.0639
     13 C          -6.8711    1.3850    0.1888 C.ar    1  LIG1        0.1254
     14 C          -5.4724    1.4196   -0.0729 C.ar    1  LIG1        0.0399
     15 C          -4.9190    2.6536   -0.3883 C.ar    1  LIG1       -0.0478
     16 C          -5.7006    3.8050   -0.4082 C.ar    1  LIG1       -0.0428
     17 C          -7.0471    3.6588   -0.1026 C.ar    1  LIG1        0.0297
     18 N          -7.6190    2.4937    0.1801 N.ar    1  LIG1       -0.2401
     19 H          -3.8667    2.7086   -0.6397 H       1  LIG1        0.0626
     20 H          -7.7072    4.5188   -0.0945 H       1  LIG1        0.0830
     21 N          -7.5156    0.2303    0.4995 N.pl3   1  LIG1       -0.3426
     22 H          -8.5186    0.3001    0.5606 H       1  LIG1        0.1437
     23 H          -7.0779   -0.6357    0.2189 H       1  LIG1        0.1437
     24 H          -5.2858    4.7702   -0.6568 H       1  LIG1        0.0633
@<TRIPOS>BOND
     1    10     9    1
     2    11     9    1
     3     9     1    1
     4    24    16    1
     5    19    15    1
     6    16    15   ar
     7    16    17   ar
     8    15    14   ar
     9     6     1   ar
    10     6     5   ar
    11     1     2   ar
    12    17    20    1
    13    17    18   ar
    14    14     5    1
    15    14    13   ar
    16     5     4   ar
    17     2     8    1
    18     2     3   ar
    19    18    13   ar
    20    13    21    1
    21    23    21    1
    22     4     3   ar
    23     4    12    1
    24     3     7    1
    25    21    22    1
