@<TRIPOS>MOLECULE
mol_data/opt/m06hf/geoms/mol2/6ha6ha6ha6ha-.out
 46 49 0 0 0
SMALL
GASTEIGER

@<TRIPOS>ATOM
      1 C          -3.9799   -2.0828   -0.7067 C.ar    1  LIG1        0.1168
      2 C          -2.9256   -2.2362    0.2116 C.ar    1  LIG1       -0.0221
      3 C          -2.7291   -1.2316    1.1386 C.ar    1  LIG1       -0.0565
      4 C          -3.5518   -0.1056    1.1367 C.ar    1  LIG1       -0.0355
      5 C          -4.5555   -0.0266    0.1734 C.ar    1  LIG1        0.0764
      6 N          -4.7627   -1.0079   -0.7157 N.ar    1  LIG1       -0.2323
      7 H          -1.9414   -1.3254    1.8751 H       1  LIG1        0.0619
      8 H          -2.3112   -3.1256    0.1953 H       1  LIG1        0.0652
      9 N          -4.2761   -3.0653   -1.6247 N.pl3   1  LIG1       -0.3431
     10 H          -4.8592   -2.7654   -2.3918 H       1  LIG1        0.1437
     11 H          -3.5428   -3.7130   -1.8664 H       1  LIG1        0.1437
     12 H          -3.4382    0.6696    1.8795 H       1  LIG1        0.0639
     13 C          -6.7985    1.1036   -0.3085 C.ar    1  LIG1        0.1261
     14 C          -5.4364    1.1723    0.0953 C.ar    1  LIG1        0.0399
     15 C          -4.9567    2.4252    0.4495 C.ar    1  LIG1       -0.0473
     16 C          -5.7756    3.5480    0.4292 C.ar    1  LIG1       -0.0348
     17 C          -7.1013    3.3810    0.0289 C.ar    1  LIG1        0.0764
     18 N          -7.5835    2.1838   -0.3188 N.ar    1  LIG1       -0.2317
     19 H          -3.9180    2.5285    0.7384 H       1  LIG1        0.0626
     20 N          -7.3807   -0.0697   -0.6683 N.pl3   1  LIG1       -0.3426
     21 H          -8.2922    0.0058   -1.0904 H       1  LIG1        0.1437
     22 H          -6.7589   -0.8153   -0.9519 H       1  LIG1        0.1437
     23 H          -5.4044    4.5116    0.7432 H       1  LIG1        0.0639
     24 C          -9.4260    4.4380    0.2050 C.ar    1  LIG1        0.1261
     25 C          -8.0249    4.5476   -0.0350 C.ar    1  LIG1        0.0399
     26 C          -7.5395    5.8177   -0.3087 C.ar    1  LIG1       -0.0473
     27 C          -8.3789    6.9283   -0.3259 C.ar    1  LIG1       -0.0348
     28 C          -9.7306    6.7154   -0.0553 C.ar    1  LIG1        0.0764
     29 N         -10.2274    5.5054    0.2023 N.ar    1  LIG1       -0.2317
     30 H          -6.4858    5.9442   -0.5249 H       1  LIG1        0.0626
     31 N         -10.0129    3.2478    0.4806 N.pl3   1  LIG1       -0.3426
     32 H         -11.0188    3.2564    0.5294 H       1  LIG1        0.1437
     33 H          -9.5121    2.4112    0.2141 H       1  LIG1        0.1437
     34 H          -8.0016    7.9235   -0.5107 H       1  LIG1        0.0639
     35 C         -10.6577    8.9790   -0.8155 C.ar    1  LIG1        0.1254
     36 C         -10.7087    7.8404    0.0193 C.ar    1  LIG1        0.0399
     37 C         -11.7395    7.7767    0.9484 C.ar    1  LIG1       -0.0478
     38 C         -12.6415    8.8282    1.0717 C.ar    1  LIG1       -0.0428
     39 C         -12.4753    9.9146    0.2228 C.ar    1  LIG1        0.0297
     40 N         -11.5233    9.9852   -0.7035 N.ar    1  LIG1       -0.2401
     41 H         -11.8087    6.8914    1.5676 H       1  LIG1        0.0626
     42 H         -13.1437   10.7663    0.2768 H       1  LIG1        0.0830
     43 N          -9.6953    9.1295   -1.7995 N.pl3   1  LIG1       -0.3426
     44 H          -9.3621    8.2782   -2.2306 H       1  LIG1        0.1437
     45 H          -9.9264    9.8735   -2.4437 H       1  LIG1        0.1437
     46 H         -13.4419    8.8082    1.7965 H       1  LIG1        0.0633
@<TRIPOS>BOND
     1    45    43    1
     2    10     9    1
     3    44    43    1
     4    11     9    1
     5    43    35    1
     6     9     1    1
     7    21    20    1
     8    22    20    1
     9    35    40   ar
    10    35    36   ar
    11     6     1   ar
    12     6     5   ar
    13     1     2   ar
    14    40    39   ar
    15    20    13    1
    16    30    26    1
    17    34    27    1
    18    27    26   ar
    19    27    28   ar
    20    18    13   ar
    21    18    17   ar
    22    26    25   ar
    23    13    14   ar
    24    28    36    1
    25    28    29   ar
    26    25    17    1
    27    25    24   ar
    28    36    37   ar
    29    17    16   ar
    30    14     5    1
    31    14    15   ar
    32     5     4   ar
    33     8     2    1
    34    29    24   ar
    35    24    31    1
    36     2     3   ar
    37    33    31    1
    38    39    42    1
    39    39    38   ar
    40    16    15   ar
    41    16    23    1
    42    15    19    1
    43    31    32    1
    44    37    38   ar
    45    37    41    1
    46    38    46    1
    47     4     3   ar
    48     4    12    1
    49     3     7    1
