@<TRIPOS>MOLECULE
mol_data/opt/m06hf/geoms/mol2/6hd6hd-4hd6hd.out
 51 54 0 0 0
SMALL
GASTEIGER

@<TRIPOS>ATOM
      1 C          -4.4614   -2.2579   -0.0440 C.ar    1  LIG1        0.1169
      2 C          -3.0457   -2.3301   -0.0190 C.ar    1  LIG1       -0.0208
      3 C          -2.3430   -1.1530   -0.0028 C.ar    1  LIG1       -0.0390
      4 C          -3.0332    0.0724   -0.0294 C.ar    1  LIG1        0.0779
      5 C          -4.4319    0.0454   -0.0922 C.ar    1  LIG1        0.0937
      6 N          -5.1161   -1.0940   -0.0864 N.ar    1  LIG1       -0.2310
      7 H          -1.2620   -1.1510    0.0452 H       1  LIG1        0.0632
      8 H          -2.5458   -3.2882    0.0009 H       1  LIG1        0.0652
      9 N          -5.2224   -3.3715   -0.0350 N.pl3   1  LIG1       -0.3431
     10 H          -6.2237   -3.2638   -0.0506 H       1  LIG1        0.1437
     11 H          -4.8218   -4.2903    0.0349 H       1  LIG1        0.1437
     12 N          -1.7022    2.2871    0.1493 N.1     1  LIG1       -0.1908
     13 C          -2.3023    1.3102    0.0782 C.1     1  LIG1        0.1013
     14 C          -5.0683    2.3563   -1.0191 C.ar    1  LIG1        0.1262
     15 C          -5.2518    1.2908   -0.0974 C.ar    1  LIG1        0.0424
     16 C          -6.2797    1.4129    0.8124 C.ar    1  LIG1       -0.0298
     17 C          -7.0640    2.5698    0.8534 C.ar    1  LIG1        0.0785
     18 C          -6.7874    3.5936   -0.0648 C.ar    1  LIG1        0.0922
     19 N          -5.8093    3.4694   -0.9580 N.ar    1  LIG1       -0.2304
     20 H          -6.4662    0.6072    1.5112 H       1  LIG1        0.0639
     21 N          -4.1806    2.2975   -2.0303 N.pl3   1  LIG1       -0.3426
     22 H          -3.5268    1.5390   -2.1233 H       1  LIG1        0.1437
     23 H          -4.0815    3.1109   -2.6158 H       1  LIG1        0.1437
     24 N          -8.8769    2.7354    2.6949 N.1     1  LIG1       -0.1908
     25 C          -8.0780    2.6873    1.8716 C.1     1  LIG1        0.1013
     26 C          -6.9199    6.1169   -0.2265 C.ar    1  LIG1        0.0345
     27 C          -7.7082    7.2860   -0.1929 C.ar    1  LIG1       -0.0313
     28 C          -7.5694    4.8635   -0.0905 C.ar    1  LIG1        0.0235
     29 C          -9.0842    7.2366   -0.0676 C.ar    1  LIG1        0.0046
     30 H          -7.2250    8.2499   -0.2940 H       1  LIG1        0.0643
     31 C          -8.9545    4.8197    0.0210 C.ar    1  LIG1       -0.0328
     32 C          -9.7186    5.9841    0.0306 C.ar    1  LIG1        0.0603
     33 H          -9.4592    3.8661    0.1063 H       1  LIG1        0.0638
     34 N          -5.5717    6.2135   -0.3492 N.pl3   1  LIG1       -0.3574
     35 H          -5.0679    5.3963   -0.6617 H       1  LIG1        0.1423
     36 H          -5.1641    7.1170   -0.5218 H       1  LIG1        0.1423
     37 N         -12.3000    5.8292    0.2199 N.1     1  LIG1       -0.1908
     38 C         -11.1557    5.8978    0.1546 C.1     1  LIG1        0.0998
     39 C         -10.7818    8.8448   -1.0663 C.ar    1  LIG1        0.1240
     40 C          -9.8646    8.5078   -0.0325 C.ar    1  LIG1        0.0242
     41 C          -9.6890    9.4129    0.9934 C.ar    1  LIG1       -0.0318
     42 C         -10.4175   10.6081    0.9949 C.ar    1  LIG1        0.0705
     43 C         -11.3049   10.8361   -0.0555 C.ar    1  LIG1        0.0471
     44 N         -11.4794    9.9860   -1.0535 N.ar    1  LIG1       -0.2388
     45 H          -8.9997    9.1912    1.7986 H       1  LIG1        0.0638
     46 H         -11.8912   11.7468   -0.0831 H       1  LIG1        0.0843
     47 N         -10.9634    8.0461   -2.1425 N.pl3   1  LIG1       -0.3427
     48 H         -11.7402    8.2765   -2.7421 H       1  LIG1        0.1437
     49 H         -10.6213    7.0991   -2.1408 H       1  LIG1        0.1437
     50 N         -10.1231   12.3624    2.8768 N.1     1  LIG1       -0.1908
     51 C         -10.2580   11.5824    2.0451 C.1     1  LIG1        0.1007
@<TRIPOS>BOND
     1    48    47    1
     2    23    21    1
     3    47    49    1
     4    47    39    1
     5    22    21    1
     6    21    14    1
     7    39    44   ar
     8    39    40   ar
     9    44    43   ar
    10    14    19   ar
    11    14    15   ar
    12    19    18   ar
    13    35    34    1
    14    36    34    1
    15    34    26    1
    16    30    27    1
    17    26    27   ar
    18    26    28   ar
    19    27    29   ar
    20    15     5    1
    21    15    16   ar
    22     5     6   ar
    23     5     4   ar
    24    28    18    1
    25    28    31   ar
    26     6     1   ar
    27    46    43    1
    28    29    40    1
    29    29    32   ar
    30    18    17   ar
    31    43    42   ar
    32    10     9    1
    33     1     9    1
    34     1     2   ar
    35     9    11    1
    36    40    41   ar
    37     4     3   ar
    38     4    13    1
    39     2     3   ar
    40     2     8    1
    41     3     7    1
    42    31    32   ar
    43    31    33    1
    44    32    38    1
    45    13    12    3
    46    38    37    3
    47    16    17   ar
    48    16    20    1
    49    17    25    1
    50    41    42   ar
    51    41    45    1
    52    42    51    1
    53    25    24    3
    54    51    50    3
