@<TRIPOS>MOLECULE
mol_data/opt/m06hf/geoms/mol2/6hd6hd-6hd-6hd.out
 50 53 0 0 0
SMALL
GASTEIGER

@<TRIPOS>ATOM
      1 C          -4.4399   -2.2556   -0.1877 C.ar    1  LIG1        0.1169
      2 C          -3.0316   -2.3233   -0.0379 C.ar    1  LIG1       -0.0208
      3 C          -2.3442   -1.1475    0.1190 C.ar    1  LIG1       -0.0390
      4 C          -3.0414    0.0741    0.1082 C.ar    1  LIG1        0.0779
      5 C          -4.4282    0.0452   -0.0825 C.ar    1  LIG1        0.0937
      6 N          -5.1001   -1.0942   -0.2130 N.ar    1  LIG1       -0.2310
      7 H          -1.2723   -1.1452    0.2652 H       1  LIG1        0.0632
      8 H          -2.5258   -3.2785   -0.0350 H       1  LIG1        0.0652
      9 N          -5.1871   -3.3704   -0.3221 N.pl3   1  LIG1       -0.3431
     10 H          -6.1832   -3.2657   -0.4276 H       1  LIG1        0.1437
     11 H          -4.7849   -4.2904   -0.2811 H       1  LIG1        0.1437
     12 N          -1.7582    2.2812    0.5420 N.1     1  LIG1       -0.1908
     13 C          -2.3375    1.3070    0.3575 C.1     1  LIG1        0.1013
     14 C          -5.0022    2.3988   -0.9348 C.ar    1  LIG1        0.1262
     15 C          -5.2535    1.2872   -0.0862 C.ar    1  LIG1        0.0424
     16 C          -6.3520    1.3616    0.7413 C.ar    1  LIG1       -0.0298
     17 C          -7.1465    2.5126    0.7768 C.ar    1  LIG1        0.0785
     18 C          -6.8070    3.5808   -0.0679 C.ar    1  LIG1        0.0937
     19 N          -5.7575    3.5025   -0.8818 N.ar    1  LIG1       -0.2304
     20 H          -6.5895    0.5221    1.3822 H       1  LIG1        0.0639
     21 N          -4.0290    2.3968   -1.8645 N.pl3   1  LIG1       -0.3426
     22 H          -3.3680    1.6431   -1.9449 H       1  LIG1        0.1437
     23 H          -3.9019    3.2294   -2.4165 H       1  LIG1        0.1437
     24 N          -9.0998    2.5638    2.4756 N.1     1  LIG1       -0.1908
     25 C          -8.2362    2.5669    1.7186 C.1     1  LIG1        0.1013
     26 C          -6.9473    6.1205   -0.2361 C.ar    1  LIG1        0.1262
     27 C          -7.5876    4.8485   -0.1018 C.ar    1  LIG1        0.0424
     28 C          -8.9635    4.8488    0.0092 C.ar    1  LIG1       -0.0298
     29 C          -9.6788    6.0520    0.0101 C.ar    1  LIG1        0.0785
     30 C          -8.9627    7.2528   -0.1132 C.ar    1  LIG1        0.0937
     31 N          -7.6427    7.2663   -0.2206 N.ar    1  LIG1       -0.2304
     32 H          -9.5106    3.9204    0.1072 H       1  LIG1        0.0639
     33 N          -5.6174    6.2457   -0.3602 N.pl3   1  LIG1       -0.3426
     34 H          -5.0646    5.4361   -0.5984 H       1  LIG1        0.1437
     35 H          -5.2565    7.1792   -0.4769 H       1  LIG1        0.1437
     36 N         -12.2484    5.9977    0.3232 N.1     1  LIG1       -0.1908
     37 C         -11.1074    6.0317    0.1984 C.1     1  LIG1        0.1013
     38 C         -10.6816    8.9674   -0.9510 C.ar    1  LIG1        0.1255
     39 C          -9.6218    8.5904   -0.0831 C.ar    1  LIG1        0.0424
     40 C          -9.1244    9.5453    0.7835 C.ar    1  LIG1       -0.0304
     41 C          -9.7100   10.8110    0.8318 C.ar    1  LIG1        0.0706
     42 C         -10.7832   11.0674   -0.0249 C.ar    1  LIG1        0.0471
     43 N         -11.2445   10.1833   -0.8886 N.ar    1  LIG1       -0.2388
     44 H          -8.2855    9.2984    1.4212 H       1  LIG1        0.0638
     45 H         -11.2734   12.0336   -0.0057 H       1  LIG1        0.0843
     46 N         -11.1516    8.1620   -1.9298 N.pl3   1  LIG1       -0.3426
     47 H         -11.9951    8.4700   -2.3879 H       1  LIG1        0.1437
     48 H         -10.9200    7.1840   -1.9617 H       1  LIG1        0.1437
     49 N          -8.8508   12.6395    2.4514 N.1     1  LIG1       -0.1908
     50 C          -9.2324   11.8280    1.7346 C.1     1  LIG1        0.1007
@<TRIPOS>BOND
     1    23    21    1
     2    47    46    1
     3    48    46    1
     4    22    21    1
     5    46    38    1
     6    21    14    1
     7    38    43   ar
     8    38    39   ar
     9    14    19   ar
    10    14    15   ar
    11    43    42   ar
    12    19    18   ar
    13    34    33    1
    14    35    33    1
    15    10     9    1
    16    33    26    1
    17     9    11    1
    18     9     1    1
    19    26    31   ar
    20    26    27   ar
    21    31    30   ar
    22     6     1   ar
    23     6     5   ar
    24     1     2   ar
    25    30    39    1
    26    30    29   ar
    27    27    18    1
    28    27    28   ar
    29    15     5    1
    30    15    16   ar
    31    39    40   ar
    32     5     4   ar
    33    18    17   ar
    34     2     8    1
    35     2     3   ar
    36    42    45    1
    37    42    41   ar
    38    28    29   ar
    39    28    32    1
    40    29    37    1
    41     4     3   ar
    42     4    13    1
    43     3     7    1
    44    37    36    3
    45    13    12    3
    46    16    17   ar
    47    16    20    1
    48    17    25    1
    49    40    41   ar
    50    40    44    1
    51    41    50    1
    52    25    24    3
    53    50    49    3
