@<TRIPOS>MOLECULE
mol_data/opt/m06hf/geoms/mol2/6hd6hd-6hd-6hd-.out
 50 53 0 0 0
SMALL
GASTEIGER

@<TRIPOS>ATOM
      1 C          -4.4920   -2.2651   -0.3314 C.ar    1  LIG1        0.1169
      2 C          -3.0878   -2.3625   -0.1605 C.ar    1  LIG1       -0.0208
      3 C          -2.3838   -1.2054    0.0504 C.ar    1  LIG1       -0.0390
      4 C          -3.0592    0.0284    0.0706 C.ar    1  LIG1        0.0779
      5 C          -4.4427    0.0303   -0.1438 C.ar    1  LIG1        0.0937
      6 N          -5.1314   -1.0918   -0.3266 N.ar    1  LIG1       -0.2310
      7 H          -1.3144   -1.2270    0.2149 H       1  LIG1        0.0632
      8 H          -2.5990   -3.3261   -0.1824 H       1  LIG1        0.0652
      9 N          -5.2554   -3.3615   -0.5147 N.pl3   1  LIG1       -0.3431
     10 H          -6.2475   -3.2368   -0.6363 H       1  LIG1        0.1437
     11 H          -4.8661   -4.2878   -0.5209 H       1  LIG1        0.1437
     12 N          -1.7526    2.2030    0.5922 N.1     1  LIG1       -0.1908
     13 C          -2.3395    1.2409    0.3708 C.1     1  LIG1        0.1013
     14 C          -4.9654    2.4238   -0.9170 C.ar    1  LIG1        0.1262
     15 C          -5.2488    1.2848   -0.1152 C.ar    1  LIG1        0.0424
     16 C          -6.3604    1.3447    0.6958 C.ar    1  LIG1       -0.0298
     17 C          -7.1376    2.5064    0.7612 C.ar    1  LIG1        0.0785
     18 C          -6.7640    3.5999   -0.0334 C.ar    1  LIG1        0.0937
     19 N          -5.7009    3.5388   -0.8308 N.ar    1  LIG1       -0.2304
     20 H          -6.6227    0.4850    1.2991 H       1  LIG1        0.0639
     21 N          -3.9792    2.4393   -1.8324 N.pl3   1  LIG1       -0.3426
     22 H          -3.3437    1.6683   -1.9479 H       1  LIG1        0.1437
     23 H          -3.8246    3.2912   -2.3463 H       1  LIG1        0.1437
     24 N          -9.1213    2.5372    2.4250 N.1     1  LIG1       -0.1908
     25 C          -8.2449    2.5479    1.6830 C.1     1  LIG1        0.1013
     26 C          -6.8786    6.1434   -0.0868 C.ar    1  LIG1        0.1262
     27 C          -7.5313    4.8762   -0.0374 C.ar    1  LIG1        0.0424
     28 C          -8.9106    4.8863    0.0105 C.ar    1  LIG1       -0.0298
     29 C          -9.6210    6.0917    0.0221 C.ar    1  LIG1        0.0785
     30 C          -8.8995    7.2939   -0.0120 C.ar    1  LIG1        0.0937
     31 N          -7.5688    7.2887   -0.0464 N.ar    1  LIG1       -0.2304
     32 H          -9.4663    3.9580    0.0406 H       1  LIG1        0.0639
     33 N          -5.5383    6.2578   -0.1438 N.pl3   1  LIG1       -0.3426
     34 H          -5.0011    5.4512   -0.4275 H       1  LIG1        0.1437
     35 H          -5.1672    7.1848   -0.2773 H       1  LIG1        0.1437
     36 N         -12.2026    5.9684    0.1795 N.1     1  LIG1       -0.1908
     37 C         -11.0588    6.0440    0.1157 C.1     1  LIG1        0.1013
     38 C          -9.0318    9.7365    0.6962 C.ar    1  LIG1        0.1255
     39 C          -9.5667    8.6245   -0.0237 C.ar    1  LIG1        0.0424
     40 C         -10.7255    8.8335   -0.7513 C.ar    1  LIG1       -0.0304
     41 C         -11.3471   10.0836   -0.7304 C.ar    1  LIG1        0.0706
     42 C         -10.7746   11.0883    0.0507 C.ar    1  LIG1        0.0471
     43 N          -9.6581   10.9229    0.7342 N.ar    1  LIG1       -0.2388
     44 H         -11.1564    8.0376   -1.3447 H       1  LIG1        0.0638
     45 H         -11.2420   12.0642    0.1085 H       1  LIG1        0.0843
     46 N          -7.8899    9.6534    1.4034 N.pl3   1  LIG1       -0.3426
     47 H          -7.2540    8.8941    1.2114 H       1  LIG1        0.1437
     48 H          -7.5707   10.5048    1.8373 H       1  LIG1        0.1437
     49 N         -13.4787   10.5634   -2.1199 N.1     1  LIG1       -0.1908
     50 C         -12.5382   10.3445   -1.4989 C.1     1  LIG1        0.1007
@<TRIPOS>BOND
     1    23    21    1
     2    49    50    3
     3    22    21    1
     4    21    14    1
     5    50    41    1
     6    44    40    1
     7    14    19   ar
     8    14    15   ar
     9    19    18   ar
    10    40    41   ar
    11    40    39   ar
    12    41    42   ar
    13    10     9    1
    14    11     9    1
    15     9     1    1
    16    34    33    1
    17     1     6   ar
    18     1     2   ar
    19     6     5   ar
    20    35    33    1
    21     8     2    1
    22     2     3   ar
    23    33    26    1
    24     5    15    1
    25     5     4   ar
    26    15    16   ar
    27    26    31   ar
    28    26    27   ar
    29    31    30   ar
    30    27    18    1
    31    27    28   ar
    32    18    17   ar
    33    39    30    1
    34    39    38   ar
    35    30    29   ar
    36    28    29   ar
    37    28    32    1
    38    29    37    1
    39     3     4   ar
    40     3     7    1
    41    42    45    1
    42    42    43   ar
    43     4    13    1
    44    37    36    3
    45    13    12    3
    46    16    17   ar
    47    16    20    1
    48    38    43   ar
    49    38    46    1
    50    17    25    1
    51    47    46    1
    52    46    48    1
    53    25    24    3
