@<TRIPOS>MOLECULE
mol_data/opt/m06hf/geoms/mol2/6hd6hd-6hd.out
 38 40 0 0 0
SMALL
GASTEIGER

@<TRIPOS>ATOM
      1 C          -4.4248   -2.1315   -0.4243 C.ar    1  LIG1        0.1169
      2 C          -3.0543   -2.2040   -0.0695 C.ar    1  LIG1       -0.0208
      3 C          -2.4273   -1.0458    0.3127 C.ar    1  LIG1       -0.0390
      4 C          -3.1441    0.1640    0.3221 C.ar    1  LIG1        0.0779
      5 C          -4.4842    0.1461   -0.0833 C.ar    1  LIG1        0.0937
      6 N          -5.1009   -0.9795   -0.4312 N.ar    1  LIG1       -0.2310
      7 H          -1.3905   -1.0502    0.6212 H       1  LIG1        0.0632
      8 H          -2.5317   -3.1499   -0.0895 H       1  LIG1        0.0652
      9 N          -5.1163   -3.2328   -0.7866 N.pl3   1  LIG1       -0.3431
     10 H          -6.0938   -3.1282   -1.0052 H       1  LIG1        0.1437
     11 H          -4.7092   -4.1510   -0.7549 H       1  LIG1        0.1437
     12 N          -2.0000    2.3237    1.1791 N.1     1  LIG1       -0.1908
     13 C          -2.5169    1.3689    0.8052 C.1     1  LIG1        0.1013
     14 C          -4.9821    2.5707   -0.7776 C.ar    1  LIG1        0.1262
     15 C          -5.3296    1.3749   -0.0889 C.ar    1  LIG1        0.0424
     16 C          -6.5416    1.3480    0.5667 C.ar    1  LIG1       -0.0298
     17 C          -7.3600    2.4822    0.5882 C.ar    1  LIG1        0.0785
     18 C          -6.9216    3.6286   -0.0951 C.ar    1  LIG1        0.0937
     19 N          -5.7703    3.6539   -0.7490 N.ar    1  LIG1       -0.2304
     20 H          -6.8471    0.4466    1.0823 H       1  LIG1        0.0639
     21 N          -3.8777    2.6785   -1.5390 N.pl3   1  LIG1       -0.3426
     22 H          -3.1722    1.9624   -1.5628 H       1  LIG1        0.1437
     23 H          -3.6711    3.5887   -1.9190 H       1  LIG1        0.1437
     24 N          -9.5620    2.4366    1.9503 N.1     1  LIG1       -0.1908
     25 C          -8.5823    2.4721    1.3523 C.1     1  LIG1        0.1013
     26 C          -9.0471    4.9970   -0.5132 C.ar    1  LIG1        0.1255
     27 C          -7.6959    4.9032   -0.0838 C.ar    1  LIG1        0.0424
     28 C          -7.0576    6.0636    0.3090 C.ar    1  LIG1       -0.0304
     29 C          -7.7673    7.2657    0.3392 C.ar    1  LIG1        0.0706
     30 C          -9.1084    7.2439   -0.0488 C.ar    1  LIG1        0.0471
     31 N          -9.7227    6.1537   -0.4694 N.ar    1  LIG1       -0.2388
     32 H          -6.0154    6.0287    0.5989 H       1  LIG1        0.0638
     33 H          -9.6960    8.1540   -0.0199 H       1  LIG1        0.0843
     34 N          -9.7180    3.9490   -1.0385 N.pl3   1  LIG1       -0.3426
     35 H         -10.7062    4.0763   -1.1884 H       1  LIG1        0.1437
     36 H          -9.3481    3.0144   -1.0063 H       1  LIG1        0.1437
     37 N          -6.6643    9.4773    1.1131 N.1     1  LIG1       -0.1908
     38 C          -7.1507    8.4958    0.7689 C.1     1  LIG1        0.1007
@<TRIPOS>BOND
     1    23    21    1
     2    22    21    1
     3    21    14    1
     4    35    34    1
     5    34    36    1
     6    34    26    1
     7    10     9    1
     8     9    11    1
     9     9     1    1
    10    14    19   ar
    11    14    15   ar
    12    19    18   ar
    13    26    31   ar
    14    26    27   ar
    15    31    30   ar
    16     6     1   ar
    17     6     5   ar
    18     1     2   ar
    19    18    27    1
    20    18    17   ar
    21     8     2    1
    22    15     5    1
    23    15    16   ar
    24    27    28   ar
    25     5     4   ar
    26     2     3   ar
    27    30    33    1
    28    30    29   ar
    29    28    29   ar
    30    28    32    1
    31     3     4   ar
    32     3     7    1
    33     4    13    1
    34    29    38    1
    35    16    17   ar
    36    16    20    1
    37    17    25    1
    38    38    37    3
    39    13    12    3
    40    25    24    3
