@<TRIPOS>MOLECULE
mol_data/opt/m06hf/geoms/mol2/6hd6hd6hd-6hd-.out
 50 53 0 0 0
SMALL
GASTEIGER

@<TRIPOS>ATOM
      1 C          -4.1828   -2.1444   -0.8252 C.ar    1  LIG1        0.1169
      2 C          -3.0363   -2.3373   -0.0195 C.ar    1  LIG1       -0.0208
      3 C          -2.6669   -1.3161    0.8185 C.ar    1  LIG1       -0.0390
      4 C          -3.4049   -0.1203    0.8418 C.ar    1  LIG1        0.0779
      5 C          -4.5047    0.0032   -0.0161 C.ar    1  LIG1        0.0937
      6 N          -4.8779   -1.0058   -0.8070 N.ar    1  LIG1       -0.2310
      7 H          -1.8133   -1.4201    1.4751 H       1  LIG1        0.0632
      8 H          -2.4882   -3.2677   -0.0563 H       1  LIG1        0.0652
      9 N          -4.6411   -3.1191   -1.6457 N.pl3   1  LIG1       -0.3431
     10 H          -5.3704   -2.8821   -2.2990 H       1  LIG1        0.1437
     11 H          -4.1070   -3.9563   -1.8038 H       1  LIG1        0.1437
     12 N          -2.6984    1.6977    2.5455 N.1     1  LIG1       -0.1908
     13 C          -3.0288    0.9042    1.7840 C.1     1  LIG1        0.1013
     14 C          -6.7403    1.2101   -0.2472 C.ar    1  LIG1        0.1262
     15 C          -5.3188    1.2485   -0.0903 C.ar    1  LIG1        0.0424
     16 C          -4.7335    2.4947    0.0044 C.ar    1  LIG1       -0.0298
     17 C          -5.5161    3.6555   -0.0195 C.ar    1  LIG1        0.0785
     18 C          -6.9059    3.5160   -0.1512 C.ar    1  LIG1        0.0937
     19 N          -7.4807    2.3276   -0.2528 N.ar    1  LIG1       -0.2304
     20 H          -3.6613    2.5942    0.1154 H       1  LIG1        0.0639
     21 N          -7.4173    0.0587   -0.3730 N.pl3   1  LIG1       -0.3426
     22 H          -8.4126    0.1299   -0.5153 H       1  LIG1        0.1437
     23 H          -6.9112   -0.7826   -0.6068 H       1  LIG1        0.1437
     24 N          -4.3902    5.9668    0.2918 N.1     1  LIG1       -0.1908
     25 C          -4.8945    4.9427    0.1652 C.1     1  LIG1        0.1013
     26 C          -7.7147    5.8142   -0.9761 C.ar    1  LIG1        0.1262
     27 C          -7.8346    4.6822   -0.1262 C.ar    1  LIG1        0.0424
     28 C          -8.9085    4.6529    0.7378 C.ar    1  LIG1       -0.0298
     29 C          -9.8027    5.7252    0.8043 C.ar    1  LIG1        0.0785
     30 C          -9.5891    6.8241   -0.0432 C.ar    1  LIG1        0.0937
     31 N          -8.5635    6.8457   -0.8896 N.ar    1  LIG1       -0.2304
     32 H          -9.0461    3.7930    1.3809 H       1  LIG1        0.0639
     33 N          -6.7863    5.9013   -1.9484 N.pl3   1  LIG1       -0.3426
     34 H          -6.0398    5.2331   -2.0344 H       1  LIG1        0.1437
     35 H          -6.7336    6.7640   -2.4656 H       1  LIG1        0.1437
     36 N         -11.7014    5.6052    2.5606 N.1     1  LIG1       -0.1908
     37 C         -10.8646    5.6824    1.7782 C.1     1  LIG1        0.1013
     38 C          -9.9805    9.3366   -0.1568 C.ar    1  LIG1        0.1255
     39 C         -10.4916    8.0080   -0.0443 C.ar    1  LIG1        0.0424
     40 C         -11.8630    7.8558    0.0581 C.ar    1  LIG1       -0.0304
     41 C         -12.6887    8.9817    0.0865 C.ar    1  LIG1        0.0706
     42 C         -12.0854   10.2390    0.0289 C.ar    1  LIG1        0.0471
     43 N         -10.7827   10.4107   -0.0917 N.ar    1  LIG1       -0.2388
     44 H         -12.3064    6.8699    0.1103 H       1  LIG1        0.0638
     45 H         -12.6935   11.1348    0.0735 H       1  LIG1        0.0843
     46 N          -8.6680    9.5913   -0.3007 N.pl3   1  LIG1       -0.3426
     47 H          -8.0495    8.8479   -0.5865 H       1  LIG1        0.1437
     48 H          -8.4036   10.5577   -0.4024 H       1  LIG1        0.1437
     49 N         -15.2675    8.7805    0.2058 N.1     1  LIG1       -0.1908
     50 C         -14.1231    8.8643    0.1613 C.1     1  LIG1        0.1007
@<TRIPOS>BOND
     1    35    33    1
     2    10     9    1
     3    34    33    1
     4    33    26    1
     5    11     9    1
     6     9     1    1
     7    26    31   ar
     8    26    27   ar
     9    31    30   ar
    10     1     6   ar
    11     1     2   ar
    12     6     5   ar
    13    23    21    1
    14    47    46    1
    15    22    21    1
    16    48    46    1
    17    21    14    1
    18    46    38    1
    19    19    14   ar
    20    19    18   ar
    21    14    15   ar
    22    38    43   ar
    23    38    39   ar
    24    18    27    1
    25    18    17   ar
    26    27    28   ar
    27    43    42   ar
    28    15     5    1
    29    15    16   ar
    30     8     2    1
    31    39    30    1
    32    39    40   ar
    33    30    29   ar
    34     2     3   ar
    35    17    16   ar
    36    17    25    1
    37     5     4   ar
    38    16    20    1
    39    42    45    1
    40    42    41   ar
    41    40    41   ar
    42    40    44    1
    43    41    50    1
    44    50    49    3
    45    25    24    3
    46    28    29   ar
    47    28    32    1
    48    29    37    1
    49     3     4   ar
    50     3     7    1
    51     4    13    1
    52    37    36    3
    53    13    12    3
