@<TRIPOS>MOLECULE
mol_data/opt/m06hf/geoms/mol2/6hd6hd-6hd6hd-.out
 50 53 0 0 0
SMALL
GASTEIGER

@<TRIPOS>ATOM
      1 C          -4.3326   -2.1915   -0.5807 C.ar    1  LIG1        0.1169
      2 C          -3.0118   -2.2995   -0.0776 C.ar    1  LIG1       -0.0208
      3 C          -2.4351   -1.1777    0.4609 C.ar    1  LIG1       -0.0390
      4 C          -3.1511    0.0326    0.4806 C.ar    1  LIG1        0.0779
      5 C          -4.4368    0.0527   -0.0729 C.ar    1  LIG1        0.0937
      6 N          -5.0069   -1.0378   -0.5753 N.ar    1  LIG1       -0.2310
      7 H          -1.4397   -1.2123    0.8838 H       1  LIG1        0.0632
      8 H          -2.4889   -3.2448   -0.1093 H       1  LIG1        0.0652
      9 N          -4.9748   -3.2568   -1.1040 N.pl3   1  LIG1       -0.3431
     10 H          -5.9179   -3.1284   -1.4333 H       1  LIG1        0.1437
     11 H          -4.5673   -4.1753   -1.1078 H       1  LIG1        0.1437
     12 N          -2.1214    2.1167    1.6224 N.1     1  LIG1       -0.1908
     13 C          -2.5875    1.1945    1.1214 C.1     1  LIG1        0.1013
     14 C          -4.8598    2.5225   -0.6401 C.ar    1  LIG1        0.1262
     15 C          -5.2788    1.2844   -0.0776 C.ar    1  LIG1        0.0424
     16 C          -6.5505    1.2211    0.4483 C.ar    1  LIG1       -0.0298
     17 C          -7.3658    2.3583    0.4651 C.ar    1  LIG1        0.0785
     18 C          -6.8607    3.5422   -0.0950 C.ar    1  LIG1        0.0937
     19 N          -5.6477    3.6061   -0.6229 N.ar    1  LIG1       -0.2304
     20 H          -6.9077    0.2894    0.8684 H       1  LIG1        0.0639
     21 N          -3.6780    2.6722   -1.2659 N.pl3   1  LIG1       -0.3426
     22 H          -2.9733    1.9547   -1.2535 H       1  LIG1        0.1437
     23 H          -3.4274    3.6034   -1.5587 H       1  LIG1        0.1437
     24 N          -9.6769    2.2552    1.6298 N.1     1  LIG1       -0.1908
     25 C          -8.6508    2.3126    1.1170 C.1     1  LIG1        0.1013
     26 C          -8.9416    4.9452   -0.6346 C.ar    1  LIG1        0.1262
     27 C          -7.6354    4.8164   -0.0867 C.ar    1  LIG1        0.0424
     28 C          -7.0479    5.9490    0.4345 C.ar    1  LIG1       -0.0298
     29 C          -7.7473    7.1604    0.4571 C.ar    1  LIG1        0.0785
     30 C          -9.0391    7.1911   -0.0930 C.ar    1  LIG1        0.0937
     31 N          -9.6015    6.1105   -0.6137 N.ar    1  LIG1       -0.2304
     32 H          -6.0478    5.8896    0.8453 H       1  LIG1        0.0639
     33 N          -9.5746    3.9306   -1.2536 N.pl3   1  LIG1       -0.3426
     34 H         -10.5310    4.0900   -1.5284 H       1  LIG1        0.1437
     35 H          -9.2175    2.9906   -1.2408 H       1  LIG1        0.1437
     36 N          -6.6828    9.2254    1.6017 N.1     1  LIG1       -0.1908
     37 C          -7.1667    8.3130    1.0996 C.1     1  LIG1        0.1013
     38 C          -9.4552    9.6642   -0.6245 C.ar    1  LIG1        0.1255
     39 C          -9.8803    8.4223   -0.0814 C.ar    1  LIG1        0.0424
     40 C         -11.1633    8.3416    0.4252 C.ar    1  LIG1       -0.0304
     41 C         -11.9684    9.4816    0.4544 C.ar    1  LIG1        0.0706
     42 C         -11.4369   10.6707   -0.0494 C.ar    1  LIG1        0.0471
     43 N         -10.2309   10.7569   -0.5782 N.ar    1  LIG1       -0.2388
     44 H         -11.5293    7.3950    0.8019 H       1  LIG1        0.0638
     45 H         -12.0245   11.5809   -0.0240 H       1  LIG1        0.0843
     46 N          -8.2756    9.8157   -1.2647 N.pl3   1  LIG1       -0.3426
     47 H          -7.5687    9.1007   -1.2507 H       1  LIG1        0.1437
     48 H          -8.0094   10.7588   -1.4990 H       1  LIG1        0.1437
     49 N         -14.3704    9.4270    1.4201 N.1     1  LIG1       -0.1908
     50 C         -13.3048    9.4488    0.9934 C.1     1  LIG1        0.1007
@<TRIPOS>BOND
     1    23    21    1
     2    34    33    1
     3    48    46    1
     4    10     9    1
     5    21    22    1
     6    21    14    1
     7    46    47    1
     8    46    38    1
     9    33    35    1
    10    33    26    1
    11    11     9    1
    12     9     1    1
    13    14    19   ar
    14    14    15   ar
    15    26    31   ar
    16    26    27   ar
    17    38    43   ar
    18    38    39   ar
    19    19    18   ar
    20    31    30   ar
    21     1     6   ar
    22     1     2   ar
    23    43    42   ar
    24     6     5   ar
    25     8     2    1
    26    18    27    1
    27    18    17   ar
    28    30    39    1
    29    30    29   ar
    30    27    28   ar
    31    39    40   ar
    32    15     5    1
    33    15    16   ar
    34     2     3   ar
    35     5     4   ar
    36    42    45    1
    37    42    41   ar
    38    40    41   ar
    39    40    44    1
    40    28    29   ar
    41    28    32    1
    42    16    17   ar
    43    16    20    1
    44    41    50    1
    45    29    37    1
    46     3     4   ar
    47     3     7    1
    48    17    25    1
    49     4    13    1
    50    50    49    3
    51    37    36    3
    52    25    24    3
    53    13    12    3
