@<TRIPOS>MOLECULE
mol_data/opt/m06hf/geoms/mol2/6hd6hd6hd.out
 38 40 0 0 0
SMALL
GASTEIGER

@<TRIPOS>ATOM
      1 C          -4.2201   -2.0361   -0.8940 C.ar    1  LIG1        0.1169
      2 C          -2.9944   -2.1799   -0.2044 C.ar    1  LIG1       -0.0208
      3 C          -2.5883   -1.1441    0.5984 C.ar    1  LIG1       -0.0390
      4 C          -3.3691    0.0202    0.6951 C.ar    1  LIG1        0.0779
      5 C          -4.5495    0.0973   -0.0532 C.ar    1  LIG1        0.0937
      6 N          -4.9570   -0.9281   -0.8059 N.ar    1  LIG1       -0.2310
      7 H          -1.6711   -1.2111    1.1686 H       1  LIG1        0.0632
      8 H          -2.4133   -3.0860   -0.2989 H       1  LIG1        0.0652
      9 N          -4.7164   -3.0334   -1.6673 N.pl3   1  LIG1       -0.3431
     10 H          -5.5026   -2.8163   -2.2589 H       1  LIG1        0.1437
     11 H          -4.1476   -3.8286   -1.9032 H       1  LIG1        0.1437
     12 N          -2.5808    1.8726    2.3239 N.1     1  LIG1       -0.1908
     13 C          -2.9486    1.0643    1.5962 C.1     1  LIG1        0.1013
     14 C          -6.8326    1.2276   -0.0653 C.ar    1  LIG1        0.1262
     15 C          -5.4095    1.3133   -0.0585 C.ar    1  LIG1        0.0424
     16 C          -4.8621    2.5810   -0.0625 C.ar    1  LIG1       -0.0298
     17 C          -5.6780    3.7171   -0.0499 C.ar    1  LIG1        0.0785
     18 C          -7.0703    3.5418   -0.0323 C.ar    1  LIG1        0.0937
     19 N          -7.6013    2.3213   -0.0245 N.ar    1  LIG1       -0.2304
     20 H          -3.7883    2.7163   -0.0739 H       1  LIG1        0.0639
     21 N          -7.4801    0.0449   -0.0816 N.pl3   1  LIG1       -0.3426
     22 H          -8.4792    0.0832   -0.2094 H       1  LIG1        0.1437
     23 H          -6.9639   -0.7675   -0.3880 H       1  LIG1        0.1437
     24 N          -4.5234    6.0339    0.0228 N.1     1  LIG1       -0.1908
     25 C          -5.0529    5.0156   -0.0035 C.1     1  LIG1        0.1013
     26 C          -9.2200    4.6592    0.7459 C.ar    1  LIG1        0.1255
     27 C          -8.0191    4.6885   -0.0270 C.ar    1  LIG1        0.0424
     28 C          -7.7748    5.8216   -0.7842 C.ar    1  LIG1       -0.0304
     29 C          -8.6650    6.8959   -0.7398 C.ar    1  LIG1        0.0706
     30 C          -9.7800    6.7902    0.0939 C.ar    1  LIG1        0.0471
     31 N         -10.0493    5.7127    0.8057 N.ar    1  LIG1       -0.2388
     32 H          -6.9001    5.8848   -1.4180 H       1  LIG1        0.0638
     33 H         -10.4799    7.6139    0.1713 H       1  LIG1        0.0843
     34 N          -9.5759    3.5908    1.4830 N.pl3   1  LIG1       -0.3426
     35 H         -10.4596    3.6526    1.9626 H       1  LIG1        0.1437
     36 H          -9.1465    2.6994    1.2875 H       1  LIG1        0.1437
     37 N          -8.2965    9.0303   -2.1579 N.1     1  LIG1       -0.1908
     38 C          -8.4527    8.0837   -1.5277 C.1     1  LIG1        0.1007
@<TRIPOS>BOND
     1    10     9    1
     2    37    38    3
     3    11     9    1
     4     9     1    1
     5    38    29    1
     6    32    28    1
     7     1     6   ar
     8     1     2   ar
     9     6     5   ar
    10    28    29   ar
    11    28    27   ar
    12    29    30   ar
    13    23    21    1
    14     8     2    1
    15    22    21    1
    16     2     3   ar
    17    21    14    1
    18    20    16    1
    19    14    15   ar
    20    14    19   ar
    21    16    15   ar
    22    16    17   ar
    23    15     5    1
    24     5     4   ar
    25    17    18   ar
    26    17    25    1
    27    18    27    1
    28    18    19   ar
    29    27    26   ar
    30    25    24    3
    31    30    33    1
    32    30    31   ar
    33     3     4   ar
    34     3     7    1
    35     4    13    1
    36    26    31   ar
    37    26    34    1
    38    36    34    1
    39    34    35    1
    40    13    12    3
