@<TRIPOS>MOLECULE
mol_data/opt/m06hf/geoms/mol2/6hd6hd6hd-6hd.out
 50 53 0 0 0
SMALL
GASTEIGER

@<TRIPOS>ATOM
      1 C          -4.1444   -2.1059   -0.8860 C.ar    1  LIG1        0.1169
      2 C          -3.0002   -2.3065   -0.0798 C.ar    1  LIG1       -0.0208
      3 C          -2.6442   -1.3022    0.7844 C.ar    1  LIG1       -0.0390
      4 C          -3.3948   -0.1150    0.8323 C.ar    1  LIG1        0.0779
      5 C          -4.4930    0.0159   -0.0251 C.ar    1  LIG1        0.0937
      6 N          -4.8528   -0.9765   -0.8425 N.ar    1  LIG1       -0.2310
      7 H          -1.7918   -1.4132    1.4415 H       1  LIG1        0.0632
      8 H          -2.4423   -3.2304   -0.1368 H       1  LIG1        0.0652
      9 N          -4.5897   -3.0661   -1.7326 N.pl3   1  LIG1       -0.3431
     10 H          -5.3034   -2.8091   -2.3956 H       1  LIG1        0.1437
     11 H          -4.0320   -3.8811   -1.9233 H       1  LIG1        0.1437
     12 N          -2.7148    1.6728    2.5781 N.1     1  LIG1       -0.1908
     13 C          -3.0341    0.8939    1.7971 C.1     1  LIG1        0.1013
     14 C          -6.7424    1.2015   -0.2089 C.ar    1  LIG1        0.1262
     15 C          -5.3201    1.2543   -0.0727 C.ar    1  LIG1        0.0424
     16 C          -4.7438    2.5047    0.0221 C.ar    1  LIG1       -0.0298
     17 C          -5.5392    3.6570    0.0099 C.ar    1  LIG1        0.0785
     18 C          -6.9284    3.5041   -0.1046 C.ar    1  LIG1        0.0937
     19 N          -7.4949    2.3103   -0.2001 N.ar    1  LIG1       -0.2304
     20 H          -3.6712    2.6133    0.1176 H       1  LIG1        0.0639
     21 N          -7.4072    0.0410   -0.3278 N.pl3   1  LIG1       -0.3426
     22 H          -8.4032    0.1029   -0.4686 H       1  LIG1        0.1437
     23 H          -6.8945   -0.7885   -0.5883 H       1  LIG1        0.1437
     24 N          -4.4404    5.9859    0.2795 N.1     1  LIG1       -0.1908
     25 C          -4.9317    4.9536    0.1744 C.1     1  LIG1        0.1013
     26 C          -7.7854    5.7657   -0.9748 C.ar    1  LIG1        0.1262
     27 C          -7.8651    4.6647   -0.0779 C.ar    1  LIG1        0.0424
     28 C          -8.9075    4.6519    0.8242 C.ar    1  LIG1       -0.0298
     29 C          -9.8142    5.7159    0.8713 C.ar    1  LIG1        0.0785
     30 C          -9.6486    6.7695   -0.0430 C.ar    1  LIG1        0.0937
     31 N          -8.6613    6.7783   -0.9255 N.ar    1  LIG1       -0.2304
     32 H          -9.0083    3.8194    1.5090 H       1  LIG1        0.0639
     33 N          -6.8727    5.8381   -1.9620 N.pl3   1  LIG1       -0.3426
     34 H          -6.0966    5.2011   -2.0180 H       1  LIG1        0.1437
     35 H          -6.8376    6.6992   -2.4846 H       1  LIG1        0.1437
     36 N         -11.6663    5.7394    2.6817 N.1     1  LIG1       -0.1908
     37 C         -10.8417    5.7423    1.8823 C.1     1  LIG1        0.1013
     38 C         -11.9522    7.8830   -0.1731 C.ar    1  LIG1        0.1255
     39 C         -10.5395    7.9655   -0.0484 C.ar    1  LIG1        0.0424
     40 C          -9.9649    9.2208    0.0078 C.ar    1  LIG1       -0.0304
     41 C         -10.7808   10.3537    0.0111 C.ar    1  LIG1        0.0706
     42 C         -12.1628   10.1656   -0.0564 C.ar    1  LIG1        0.0471
     43 N         -12.7272    8.9764   -0.1553 N.ar    1  LIG1       -0.2388
     44 H          -8.8876    9.3132    0.0564 H       1  LIG1        0.0638
     45 H         -12.8279   11.0208   -0.0355 H       1  LIG1        0.0843
     46 N         -12.5999    6.7137   -0.3714 N.pl3   1  LIG1       -0.3426
     47 H         -13.6046    6.7407   -0.3000 H       1  LIG1        0.1437
     48 H         -12.1324    5.8289   -0.2707 H       1  LIG1        0.1437
     49 N          -9.8005   12.7466    0.1519 N.1     1  LIG1       -0.1908
     50 C         -10.2305   11.6838    0.0900 C.1     1  LIG1        0.1007
@<TRIPOS>BOND
     1    35    33    1
     2    10     9    1
     3    34    33    1
     4    33    26    1
     5    11     9    1
     6     9     1    1
     7    26    31   ar
     8    26    27   ar
     9    31    30   ar
    10     1     6   ar
    11     1     2   ar
    12     6     5   ar
    13    23    21    1
    14    22    21    1
    15    46    47    1
    16    46    48    1
    17    46    38    1
    18    21    14    1
    19    14    19   ar
    20    14    15   ar
    21    19    18   ar
    22    38    43   ar
    23    38    39   ar
    24    43    42   ar
    25     8     2    1
    26    18    27    1
    27    18    17   ar
    28     2     3   ar
    29    27    28   ar
    30    15     5    1
    31    15    16   ar
    32    42    45    1
    33    42    41   ar
    34    39    30    1
    35    39    40   ar
    36    30    29   ar
    37     5     4   ar
    38    40    41   ar
    39    40    44    1
    40    17    16   ar
    41    17    25    1
    42    41    50    1
    43    16    20    1
    44    50    49    3
    45    25    24    3
    46     3     4   ar
    47     3     7    1
    48    28    29   ar
    49    28    32    1
    50     4    13    1
    51    29    37    1
    52    13    12    3
    53    37    36    3
