@<TRIPOS>MOLECULE
mol_data/opt/m06hf/geoms/mol2/6hd6hd.out
 26 27 0 0 0
SMALL
GASTEIGER

@<TRIPOS>ATOM
      1 C          -4.4346   -2.0597   -0.5045 C.ar    1  LIG1        0.1169
      2 C          -3.0649   -2.0930   -0.1596 C.ar    1  LIG1       -0.0208
      3 C          -2.4918   -0.9275    0.2844 C.ar    1  LIG1       -0.0390
      4 C          -3.2553    0.2484    0.3621 C.ar    1  LIG1        0.0779
      5 C          -4.5974    0.2049   -0.0388 C.ar    1  LIG1        0.0937
      6 N          -5.1557   -0.9403   -0.4387 N.ar    1  LIG1       -0.2310
      7 H          -1.4534   -0.9016    0.5877 H       1  LIG1        0.0632
      8 H          -2.5009   -3.0119   -0.2289 H       1  LIG1        0.0652
      9 N          -5.0913   -3.1790   -0.9023 N.pl3   1  LIG1       -0.3431
     10 H          -6.0098   -3.0600   -1.2990 H       1  LIG1        0.1437
     11 H          -4.5794   -4.0138   -1.1311 H       1  LIG1        0.1437
     12 N          -2.1124    2.3550    1.3438 N.1     1  LIG1       -0.1908
     13 C          -2.6403    1.4348    0.9042 C.1     1  LIG1        0.1013
     14 C          -6.8397    1.3556    0.3333 C.ar    1  LIG1        0.1255
     15 C          -5.4640    1.4156   -0.0434 C.ar    1  LIG1        0.0424
     16 C          -4.9602    2.6467   -0.4273 C.ar    1  LIG1       -0.0304
     17 C          -5.7786    3.7771   -0.3931 C.ar    1  LIG1        0.0706
     18 C          -7.0952    3.6209    0.0439 C.ar    1  LIG1        0.0471
     19 N          -7.6073    2.4551    0.3895 N.ar    1  LIG1       -0.2388
     20 H          -3.9348    2.7441   -0.7597 H       1  LIG1        0.0638
     21 H          -7.7528    4.4798    0.1026 H       1  LIG1        0.0843
     22 N          -7.4400    0.2031    0.6846 N.pl3   1  LIG1       -0.3426
     23 H          -8.4245    0.2578    0.8896 H       1  LIG1        0.1437
     24 H          -7.0064   -0.6687    0.4213 H       1  LIG1        0.1437
     25 N          -4.9165    6.1089   -1.1172 N.1     1  LIG1       -0.1908
     26 C          -5.2927    5.0731   -0.7951 C.1     1  LIG1        0.1007
@<TRIPOS>BOND
     1    10     9    1
     2    11     9    1
     3    25    26    3
     4     9     1    1
     5    26    17    1
     6    20    16    1
     7     1     6   ar
     8     1     2   ar
     9     6     5   ar
    10    16    17   ar
    11    16    15   ar
    12    17    18   ar
    13     8     2    1
    14     2     3   ar
    15    15     5    1
    16    15    14   ar
    17     5     4   ar
    18    18    21    1
    19    18    19   ar
    20     3     4   ar
    21     3     7    1
    22    14    19   ar
    23    14    22    1
    24     4    13    1
    25    24    22    1
    26    22    23    1
    27    13    12    3
