@<TRIPOS>MOLECULE
mol_data/opt/m06hf/geoms/mol2/6hd6hd6hd6hd.out
 50 53 0 0 0
SMALL
GASTEIGER

@<TRIPOS>ATOM
      1 C          -3.8762   -1.9459   -1.1749 C.ar    1  LIG1        0.1169
      2 C          -2.8903   -2.2457   -0.2053 C.ar    1  LIG1       -0.0208
      3 C          -2.7648   -1.3949    0.8632 C.ar    1  LIG1       -0.0390
      4 C          -3.5831   -0.2559    0.9557 C.ar    1  LIG1        0.0779
      5 C          -4.5046   -0.0120   -0.0684 C.ar    1  LIG1        0.0937
      6 N          -4.6483   -0.8617   -1.0882 N.ar    1  LIG1       -0.2310
      7 H          -2.0443   -1.5910    1.6462 H       1  LIG1        0.0632
      8 H          -2.2741   -3.1282   -0.3036 H       1  LIG1        0.0652
      9 N          -4.0962   -2.7633   -2.2335 N.pl3   1  LIG1       -0.3431
     10 H          -4.6922   -2.4228   -2.9713 H       1  LIG1        0.1437
     11 H          -3.4597   -3.5137   -2.4424 H       1  LIG1        0.1437
     12 N          -3.3581    1.2365    3.0596 N.1     1  LIG1       -0.1908
     13 C          -3.4736    0.5878    2.1196 C.1     1  LIG1        0.1013
     14 C          -6.7367    1.1451   -0.4846 C.ar    1  LIG1        0.1262
     15 C          -5.3699    1.2011   -0.0813 C.ar    1  LIG1        0.0424
     16 C          -4.8818    2.4340    0.3003 C.ar    1  LIG1       -0.0298
     17 C          -5.7085    3.5634    0.3075 C.ar    1  LIG1        0.0785
     18 C          -7.0468    3.4131   -0.0791 C.ar    1  LIG1        0.0937
     19 N          -7.5249    2.2252   -0.4435 N.ar    1  LIG1       -0.2304
     20 H          -3.8491    2.5488    0.6032 H       1  LIG1        0.0639
     21 N          -7.3137   -0.0012   -0.8969 N.pl3   1  LIG1       -0.3426
     22 H          -8.2453    0.0747   -1.2741 H       1  LIG1        0.1437
     23 H          -6.7068   -0.7503   -1.1989 H       1  LIG1        0.1437
     24 N          -4.6894    5.8042    1.1109 N.1     1  LIG1       -0.1908
     25 C          -5.1603    4.8181    0.7583 C.1     1  LIG1        0.1013
     26 C          -9.3519    4.4189    0.3176 C.ar    1  LIG1        0.1262
     27 C          -7.9978    4.5581   -0.1083 C.ar    1  LIG1        0.0424
     28 C          -7.6075    5.8095   -0.5419 C.ar    1  LIG1       -0.0298
     29 C          -8.5016    6.8853   -0.5336 C.ar    1  LIG1        0.0785
     30 C          -9.8059    6.6684   -0.0642 C.ar    1  LIG1        0.0937
     31 N         -10.1861    5.4639    0.3551 N.ar    1  LIG1       -0.2304
     32 H          -6.5973    5.9806   -0.8910 H       1  LIG1        0.0639
     33 N          -9.8543    3.2405    0.7358 N.pl3   1  LIG1       -0.3426
     34 H         -10.8454    3.2114    0.9151 H       1  LIG1        0.1437
     35 H          -9.3597    2.3980    0.4795 H       1  LIG1        0.1437
     36 N          -7.6106    9.1868   -1.3178 N.1     1  LIG1       -0.1908
     37 C          -8.0244    8.1777   -0.9586 C.1     1  LIG1        0.1013
     38 C         -11.7371    7.8626    1.0837 C.ar    1  LIG1        0.1255
     39 C         -10.8230    7.7533   -0.0086 C.ar    1  LIG1        0.0424
     40 C         -10.9213    8.6939   -1.0197 C.ar    1  LIG1       -0.0304
     41 C         -11.8585    9.7242   -0.9250 C.ar    1  LIG1        0.0706
     42 C         -12.6638    9.7767    0.2138 C.ar    1  LIG1        0.0471
     43 N         -12.6086    8.8787    1.1787 N.ar    1  LIG1       -0.2388
     44 H         -10.2806    8.6391   -1.8899 H       1  LIG1        0.0638
     45 H         -13.3859   10.5759    0.3315 H       1  LIG1        0.0843
     46 N         -11.7576    6.9760    2.0960 N.pl3   1  LIG1       -0.3426
     47 H         -12.4644    7.1155    2.8000 H       1  LIG1        0.1437
     48 H         -11.3183    6.0775    1.9656 H       1  LIG1        0.1437
     49 N         -12.1356   11.4952   -2.7931 N.1     1  LIG1       -0.1908
     50 C         -12.0043   10.7100   -1.9660 C.1     1  LIG1        0.1007
@<TRIPOS>BOND
     1    10     9    1
     2    49    50    3
     3    11     9    1
     4     9     1    1
     5    50    41    1
     6    44    40    1
     7    36    37    3
     8    22    21    1
     9    23    21    1
    10     1     6   ar
    11     1     2   ar
    12     6     5   ar
    13    40    41   ar
    14    40    39   ar
    15    37    29    1
    16    41    42   ar
    17    21    14    1
    18    32    28    1
    19    28    29   ar
    20    28    27   ar
    21    29    30   ar
    22    14    19   ar
    23    14    15   ar
    24    19    18   ar
    25     8     2    1
    26     2     3   ar
    27    27    18    1
    28    27    26   ar
    29    15     5    1
    30    15    16   ar
    31    18    17   ar
    32     5     4   ar
    33    30    39    1
    34    30    31   ar
    35    39    38   ar
    36    42    45    1
    37    42    43   ar
    38    16    17   ar
    39    16    20    1
    40    17    25    1
    41    26    31   ar
    42    26    33    1
    43    35    33    1
    44    33    34    1
    45    25    24    3
    46     3     4   ar
    47     3     7    1
    48     4    13    1
    49    38    43   ar
    50    38    46    1
    51    48    46    1
    52    46    47    1
    53    13    12    3
