@<TRIPOS>MOLECULE
mol_data/opt/m06hf/geoms/mol2/6hd6hd6hd6hd-.out
 50 53 0 0 0
SMALL
GASTEIGER

@<TRIPOS>ATOM
      1 C          -3.8482   -1.9084   -1.1443 C.ar    1  LIG1        0.1169
      2 C          -2.9101   -2.2538   -0.1442 C.ar    1  LIG1       -0.0208
      3 C          -2.8156   -1.4358    0.9531 C.ar    1  LIG1       -0.0390
      4 C          -3.6192   -0.2864    1.0458 C.ar    1  LIG1        0.0779
      5 C          -4.4964    0.0009   -0.0053 C.ar    1  LIG1        0.0937
      6 N          -4.6069   -0.8151   -1.0565 N.ar    1  LIG1       -0.2310
      7 H          -2.1317   -1.6667    1.7591 H       1  LIG1        0.0632
      8 H          -2.3056   -3.1443   -0.2418 H       1  LIG1        0.0652
      9 N          -4.0354   -2.6880   -2.2373 N.pl3   1  LIG1       -0.3431
     10 H          -4.5869   -2.3092   -2.9906 H       1  LIG1        0.1437
     11 H          -3.4022   -3.4419   -2.4434 H       1  LIG1        0.1437
     12 N          -3.4614    1.1336    3.2056 N.1     1  LIG1       -0.1908
     13 C          -3.5460    0.5185    2.2399 C.1     1  LIG1        0.1013
     14 C          -6.6985    1.1892   -0.4850 C.ar    1  LIG1        0.1262
     15 C          -5.3519    1.2204   -0.0146 C.ar    1  LIG1        0.0424
     16 C          -4.8777    2.4353    0.4368 C.ar    1  LIG1       -0.0298
     17 C          -5.6970    3.5703    0.4434 C.ar    1  LIG1        0.0785
     18 C          -7.0145    3.4455   -0.0192 C.ar    1  LIG1        0.0937
     19 N          -7.4797    2.2741   -0.4469 N.ar    1  LIG1       -0.2304
     20 H          -3.8613    2.5306    0.7962 H       1  LIG1        0.0639
     21 N          -7.2649    0.0636   -0.9617 N.pl3   1  LIG1       -0.3426
     22 H          -8.1781    0.1605   -1.3770 H       1  LIG1        0.1437
     23 H          -6.6523   -0.6825   -1.2591 H       1  LIG1        0.1437
     24 N          -4.7031    5.7740    1.3700 N.1     1  LIG1       -0.1908
     25 C          -5.1628    4.8036    0.9636 C.1     1  LIG1        0.1013
     26 C          -9.3435    4.4467    0.2446 C.ar    1  LIG1        0.1262
     27 C          -7.9571    4.5971   -0.0709 C.ar    1  LIG1        0.0424
     28 C          -7.5284    5.8603   -0.4279 C.ar    1  LIG1       -0.0298
     29 C          -8.4250    6.9344   -0.4553 C.ar    1  LIG1        0.0785
     30 C          -9.7652    6.6929   -0.1168 C.ar    1  LIG1        0.0937
     31 N         -10.1882    5.4872    0.2309 N.ar    1  LIG1       -0.2304
     32 H          -6.4918    6.0403   -0.6819 H       1  LIG1        0.0639
     33 N          -9.8768    3.2658    0.5953 N.pl3   1  LIG1       -0.3426
     34 H         -10.8701    3.2515    0.7643 H       1  LIG1        0.1437
     35 H          -9.3665    2.4186    0.3961 H       1  LIG1        0.1437
     36 N          -7.5717    9.3039   -1.0570 N.1     1  LIG1       -0.1908
     37 C          -7.9511    8.2579   -0.7736 C.1     1  LIG1        0.1013
     38 C         -11.0861    8.6095   -1.1932 C.ar    1  LIG1        0.1255
     39 C         -10.7922    7.7738   -0.0833 C.ar    1  LIG1        0.0424
     40 C         -11.5556    7.9211    1.0592 C.ar    1  LIG1       -0.0304
     41 C         -12.5363    8.9125    1.1134 C.ar    1  LIG1        0.0706
     42 C         -12.7175    9.7157   -0.0146 C.ar    1  LIG1        0.0471
     43 N         -12.0251    9.5645   -1.1276 N.ar    1  LIG1       -0.2388
     44 H         -11.3826    7.2671    1.9044 H       1  LIG1        0.0638
     45 H         -13.4610   10.5040   -0.0049 H       1  LIG1        0.0843
     46 N         -10.4908    8.4629   -2.3993 N.pl3   1  LIG1       -0.3426
     47 H          -9.6529    7.9161   -2.5032 H       1  LIG1        0.1437
     48 H         -10.6644    9.1987   -3.0664 H       1  LIG1        0.1437
     49 N         -13.9922    9.2739    3.2239 N.1     1  LIG1       -0.1908
     50 C         -13.3440    9.1124    2.2904 C.1     1  LIG1        0.1007
@<TRIPOS>BOND
     1    48    46    1
     2    10     9    1
     3    47    46    1
     4    11     9    1
     5    46    38    1
     6     9     1    1
     7    22    21    1
     8    23    21    1
     9    38    43   ar
    10    38    39   ar
    11     1     6   ar
    12     1     2   ar
    13    43    42   ar
    14    36    37    3
    15     6     5   ar
    16    21    14    1
    17    37    29    1
    18    32    28    1
    19    14    19   ar
    20    14    15   ar
    21    29    28   ar
    22    29    30   ar
    23    19    18   ar
    24    28    27   ar
    25     8     2    1
    26     2     3   ar
    27    30    39    1
    28    30    31   ar
    29    39    40   ar
    30    27    18    1
    31    27    26   ar
    32    18    17   ar
    33    15     5    1
    34    15    16   ar
    35    42    45    1
    36    42    41   ar
    37     5     4   ar
    38    31    26   ar
    39    26    33    1
    40    35    33    1
    41    16    17   ar
    42    16    20    1
    43    17    25    1
    44    33    34    1
    45     3     4   ar
    46     3     7    1
    47    25    24    3
    48     4    13    1
    49    40    41   ar
    50    40    44    1
    51    41    50    1
    52    13    12    3
    53    50    49    3
