@<TRIPOS>MOLECULE
mol_data/opt/m06hf/geoms/mol2/6hd6hd-.out
 26 27 0 0 0
SMALL
GASTEIGER

@<TRIPOS>ATOM
      1 C          -4.4392   -2.0261   -0.5276 C.ar    1  LIG1        0.1169
      2 C          -3.1214   -2.1227   -0.0148 C.ar    1  LIG1       -0.0208
      3 C          -2.5510   -0.9885    0.5042 C.ar    1  LIG1       -0.0390
      4 C          -3.2691    0.2198    0.4968 C.ar    1  LIG1        0.0779
      5 C          -4.5531    0.2286   -0.0641 C.ar    1  LIG1        0.0937
      6 N          -5.1159   -0.8748   -0.5480 N.ar    1  LIG1       -0.2310
      7 H          -1.5580   -1.0129    0.9334 H       1  LIG1        0.0632
      8 H          -2.5963   -3.0671   -0.0235 H       1  LIG1        0.0652
      9 N          -5.0801   -3.1026   -1.0309 N.pl3   1  LIG1       -0.3431
     10 H          -6.0092   -2.9706   -1.3963 H       1  LIG1        0.1437
     11 H          -4.6573   -4.0133   -1.0546 H       1  LIG1        0.1437
     12 N          -2.2289    2.3215    1.5969 N.1     1  LIG1       -0.1908
     13 C          -2.7037    1.3936    1.1144 C.1     1  LIG1        0.1013
     14 C          -4.9785    2.6848   -0.6685 C.ar    1  LIG1        0.1255
     15 C          -5.3997    1.4558   -0.0941 C.ar    1  LIG1        0.0424
     16 C          -6.6846    1.3834    0.4091 C.ar    1  LIG1       -0.0304
     17 C          -7.4951    2.5196    0.4050 C.ar    1  LIG1        0.0706
     18 C          -6.9679    3.6971   -0.1299 C.ar    1  LIG1        0.0471
     19 N          -5.7600    3.7744   -0.6557 N.ar    1  LIG1       -0.2388
     20 H          -7.0475    0.4458    0.8092 H       1  LIG1        0.0638
     21 H          -7.5601    4.6044   -0.1338 H       1  LIG1        0.0843
     22 N          -3.7965    2.8244   -1.3063 N.pl3   1  LIG1       -0.3426
     23 H          -3.0887    2.1110   -1.2680 H       1  LIG1        0.1437
     24 H          -3.5299    3.7621   -1.5607 H       1  LIG1        0.1437
     25 N          -9.8966    2.4711    1.3732 N.1     1  LIG1       -0.1908
     26 C          -8.8320    2.4920    0.9431 C.1     1  LIG1        0.1007
@<TRIPOS>BOND
     1    24    22    1
     2    10     9    1
     3    22    23    1
     4    22    14    1
     5    11     9    1
     6     9     1    1
     7    14    19   ar
     8    14    15   ar
     9    19    18   ar
    10     6     1   ar
    11     6     5   ar
    12     1     2   ar
    13    21    18    1
    14    18    17   ar
    15    15     5    1
    16    15    16   ar
    17     5     4   ar
    18     8     2    1
    19     2     3   ar
    20    17    16   ar
    21    17    26    1
    22    16    20    1
    23     4     3   ar
    24     4    13    1
    25     3     7    1
    26    26    25    3
    27    13    12    3
