@<TRIPOS>MOLECULE
mol_data/opt/m06hf/geoms/mol2/6he13de13ll12de-.out
 52 55 0 0 0
SMALL
GASTEIGER

@<TRIPOS>ATOM
      1 C          -4.4887   -2.0763   -0.3880 C.ar    1  LIG1        0.1169
      2 C          -3.1189   -2.1755   -0.7217 C.ar    1  LIG1       -0.0209
      3 C          -2.3867   -1.0166   -0.7875 C.ar    1  LIG1       -0.0410
      4 C          -2.9842    0.2281   -0.5100 C.ar    1  LIG1        0.0522
      5 C          -4.3276    0.2100   -0.1348 C.ar    1  LIG1        0.1058
      6 N          -5.0583   -0.9123   -0.1028 N.ar    1  LIG1       -0.2297
      7 H          -1.3427   -1.0367   -1.0695 H       1  LIG1        0.0631
      8 H          -2.6774   -3.1379   -0.9390 H       1  LIG1        0.0652
      9 N          -5.2961   -3.1801   -0.3732 N.pl3   1  LIG1       -0.3431
     10 H          -6.1890   -3.0655    0.0801 H       1  LIG1        0.1437
     11 H          -4.8726   -4.0914   -0.3160 H       1  LIG1        0.1437
     12 C          -2.2291    1.4359   -0.6928 C.1     1  LIG1       -0.0675
     13 C          -1.5709    2.4244   -0.8745 C.1     1  LIG1       -0.1138
     14 H          -1.0040    3.3189   -0.9958 H       1  LIG1        0.1232
     15 C          -5.1099    1.4211    0.1975 C.ar    1  LIG1        0.0855
     16 C          -4.8484    2.6429    0.7978 C.ar    1  LIG1        0.0945
     17 C          -6.0793    3.3701    0.8538 C.ar    1  LIG1        0.0695
     18 C          -7.0478    2.5585    0.2889 C.ar    1  LIG1        0.0840
     19 N          -6.4382    1.4000   -0.0867 N.ar    1  LIG1       -0.3497
     20 H          -6.8667    0.6051   -0.5423 H       1  LIG1        0.1661
     21 N          -2.7056    3.4976    1.9527 N.1     1  LIG1       -0.1908
     22 C          -3.6377    3.0999    1.4133 C.1     1  LIG1        0.1026
     23 C          -6.2795    4.6687    1.4143 C.1     1  LIG1       -0.0662
     24 C          -6.4435    5.7639    1.8783 C.1     1  LIG1       -0.1138
     25 H          -6.5916    6.7336    2.2931 H       1  LIG1        0.1232
     26 C          -8.4750    2.7805    0.0954 C.ar    1  LIG1        0.1106
     27 C          -9.1703    3.9168   -0.2835 C.ar    1  LIG1        0.1891
     28 C         -10.5475    3.5677   -0.3448 C.ar    1  LIG1        0.1907
     29 C         -10.6480    2.2381    0.0141 C.ar    1  LIG1        0.1298
     30 N          -9.3828    1.7688    0.2475 N.ar    1  LIG1       -0.3446
     31 H          -9.1831    0.8653    0.6479 H       1  LIG1        0.1663
     32 O          -8.6818    5.1502   -0.5692 O.3     1  LIG1       -0.4895
     33 C          -7.8324    5.2103   -1.7151 C.3     1  LIG1        0.0791
     34 H          -7.5829    6.2596   -1.8484 H       1  LIG1        0.0660
     35 H          -6.9218    4.6346   -1.5431 H       1  LIG1        0.0660
     36 H          -8.3627    4.8304   -2.5899 H       1  LIG1        0.0660
     37 O         -11.5793    4.3386   -0.7477 O.3     1  LIG1       -0.4894
     38 C         -11.7508    5.5457    0.0068 C.3     1  LIG1        0.0791
     39 H         -12.6363    6.0241   -0.4012 H       1  LIG1        0.0660
     40 H         -11.9174    5.2992    1.0561 H       1  LIG1        0.0660
     41 H         -10.8704    6.1768   -0.1069 H       1  LIG1        0.0660
     42 C         -11.8096    1.3855    0.1311 C.ar    1  LIG1        0.1731
     43 C         -13.1453    1.6177    0.2923 C.ar    1  LIG1        0.1143
     44 C         -13.7790    0.3150    0.3516 C.ar    1  LIG1        0.0804
     45 C         -12.7732   -0.5835    0.2335 C.ar    1  LIG1        0.1093
     46 O         -11.5893    0.0540    0.0984 O.2     1  LIG1       -0.4587
     47 H         -12.7569   -1.6582    0.2284 H       1  LIG1        0.1042
     48 N         -14.3881    3.8533    0.6135 N.1     1  LIG1       -0.1907
     49 C         -13.8117    2.8740    0.4519 C.1     1  LIG1        0.1043
     50 C         -15.1742    0.0460    0.5172 C.1     1  LIG1       -0.0652
     51 C         -16.3467   -0.1658    0.6586 C.1     1  LIG1       -0.1138
     52 H         -17.3889   -0.3470    0.7863 H       1  LIG1        0.1232
@<TRIPOS>BOND
     1    36    33    1
     2    34    33    1
     3    33    35    1
     4    33    32    1
     5     7     3    1
     6    14    13    1
     7     8     2    1
     8    13    12    3
     9     3     2   ar
    10     3     4   ar
    11    37    28    1
    12    37    38    1
    13     2     1   ar
    14    12     4    1
    15    32    27    1
    16    20    19    1
    17     4     5   ar
    18    39    38    1
    19     1     9    1
    20     1     6   ar
    21     9    11    1
    22     9    10    1
    23    28    27   ar
    24    28    29   ar
    25    27    26   ar
    26     5     6   ar
    27     5    15    1
    28    41    38    1
    29    19    15   ar
    30    19    18   ar
    31    38    40    1
    32    29    42    1
    33    29    30   ar
    34    26    30   ar
    35    26    18    1
    36    46    42   ar
    37    46    45   ar
    38    42    43   ar
    39    15    16   ar
    40    47    45    1
    41    45    44   ar
    42    30    31    1
    43    18    17   ar
    44    43    44   ar
    45    43    49    1
    46    44    50    1
    47    49    48    3
    48    50    51    3
    49    51    52    1
    50    16    17   ar
    51    16    22    1
    52    17    23    1
    53    22    21    3
    54    23    24    3
    55    24    25    1
