@<TRIPOS>MOLECULE
mol_data/opt/m06hf/geoms/mol2/6he13da-12hh12fl.out
 47 50 0 0 0
SMALL
GASTEIGER

@<TRIPOS>ATOM
      1 C          -4.6392   -2.0375    0.1794 C.ar    1  LIG1        0.1169
      2 C          -3.2880   -2.2028   -0.2001 C.ar    1  LIG1       -0.0209
      3 C          -2.5650   -1.0755   -0.5033 C.ar    1  LIG1       -0.0410
      4 C          -3.1475    0.2017   -0.4035 C.ar    1  LIG1        0.0522
      5 C          -4.4695    0.2592    0.0449 C.ar    1  LIG1        0.1058
      6 N          -5.1957   -0.8382    0.2931 N.ar    1  LIG1       -0.2297
      7 H          -1.5381   -1.1512   -0.8347 H       1  LIG1        0.0631
      8 H          -2.8514   -3.1897   -0.2590 H       1  LIG1        0.0652
      9 N          -5.4264   -3.1115    0.4786 N.pl3   1  LIG1       -0.3431
     10 H          -6.4046   -2.9269    0.6320 H       1  LIG1        0.1437
     11 H          -5.1538   -4.0332    0.1851 H       1  LIG1        0.1437
     12 C          -2.4073    1.3563   -0.8290 C.1     1  LIG1       -0.0675
     13 C          -1.7645    2.2982   -1.2074 C.1     1  LIG1       -0.1138
     14 H          -1.2125    3.1603   -1.5017 H       1  LIG1        0.1232
     15 C          -5.2263    1.5156    0.2245 C.ar    1  LIG1        0.0843
     16 C          -4.9225    2.8108    0.6324 C.ar    1  LIG1        0.0792
     17 C          -6.1330    3.5563    0.6536 C.ar    1  LIG1       -0.0152
     18 C          -7.1337    2.6922    0.2600 C.ar    1  LIG1        0.0858
     19 N          -6.5663    1.4791    0.0169 N.ar    1  LIG1       -0.3495
     20 H          -7.0572    0.6290   -0.2260 H       1  LIG1        0.1661
     21 N          -2.7017    3.7843    1.5186 N.1     1  LIG1       -0.1908
     22 C          -3.6677    3.3225    1.1033 C.1     1  LIG1        0.1014
     23 H          -6.2567    4.5790    0.9653 H       1  LIG1        0.0653
     24 C          -8.5562    2.9115    0.0948 C.ar    1  LIG1        0.1743
     25 C          -9.3032    4.0483    0.0447 C.ar    1  LIG1        0.0942
     26 C         -10.6653    3.6182   -0.1471 C.ar    1  LIG1        0.0959
     27 C         -10.6245    2.2567   -0.1853 C.ar    1  LIG1        0.1968
     28 O          -9.3556    1.8165   -0.0458 O.2     1  LIG1       -0.4463
     29 N          -8.8980    5.3760    0.1748 N.pl3   1  LIG1       -0.3535
     30 H          -8.1419    5.6357   -0.4482 H       1  LIG1        0.1425
     31 H          -9.6959    5.9955    0.0806 H       1  LIG1        0.1425
     32 N         -11.7518    4.5193   -0.2673 N.pl3   1  LIG1       -0.3535
     33 H         -11.9822    4.6853   -1.2431 H       1  LIG1        0.1425
     34 H         -12.5785    4.1647    0.2063 H       1  LIG1        0.1425
     35 C         -11.6913    1.2821   -0.3055 C.ar    1  LIG1        0.2165
     36 C         -13.0025    1.3478    0.0398 C.ar    1  LIG1        0.2085
     37 C         -13.5803    0.0871   -0.3310 C.ar    1  LIG1        0.2002
     38 C         -12.5743   -0.6531   -0.8639 C.ar    1  LIG1        0.1381
     39 O         -11.4304    0.0721   -0.8584 O.2     1  LIG1       -0.4522
     40 H         -12.5187   -1.6468   -1.2683 H       1  LIG1        0.1069
     41 O         -13.6630    2.3746    0.6345 O.3     1  LIG1       -0.5007
     42 H         -14.5560    2.0805    0.8552 H       1  LIG1        0.2924
     43 O         -14.8880   -0.1675   -0.1014 O.3     1  LIG1       -0.4888
     44 C         -15.3167   -1.4660   -0.4811 C.3     1  LIG1        0.0791
     45 H         -16.3739   -1.5269   -0.2397 H       1  LIG1        0.0660
     46 H         -15.1661   -1.6079   -1.5540 H       1  LIG1        0.0660
     47 H         -14.7583   -2.2204    0.0783 H       1  LIG1        0.0660
@<TRIPOS>BOND
     1    46    44    1
     2    14    13    1
     3    40    38    1
     4    33    32    1
     5    13    12    3
     6    38    39   ar
     7    38    37   ar
     8    39    35   ar
     9     7     3    1
    10    12     4    1
    11     3     4   ar
    12     3     2   ar
    13    44    45    1
    14    44    43    1
    15    44    47    1
    16    30    29    1
    17     4     5   ar
    18    37    43    1
    19    37    36   ar
    20    35    27    1
    21    35    36   ar
    22    32    26    1
    23    32    34    1
    24     8     2    1
    25    20    19    1
    26     2     1   ar
    27    27    26   ar
    28    27    28   ar
    29    26    25   ar
    30    28    24   ar
    31    19    15   ar
    32    19    18   ar
    33    36    41    1
    34    25    24   ar
    35    25    29    1
    36     5    15    1
    37     5     6   ar
    38    31    29    1
    39    24    18    1
    40     1     6   ar
    41     1     9    1
    42    11     9    1
    43    15    16   ar
    44    18    17   ar
    45     9    10    1
    46    16    17   ar
    47    16    22    1
    48    41    42    1
    49    17    23    1
    50    22    21    3
