@<TRIPOS>MOLECULE
mol_data/opt/m06hf/geoms/mol2/6he4fh-13ii-6ha-.out
 53 56 0 0 0
SMALL
GASTEIGER

@<TRIPOS>ATOM
      1 C          -3.7036   -1.5910   -1.2766 C.ar    1  LIG1        0.1169
      2 C          -2.8842   -2.0669   -0.2305 C.ar    1  LIG1       -0.0209
      3 C          -2.8508   -1.3399    0.9352 C.ar    1  LIG1       -0.0410
      4 C          -3.6044   -0.1607    1.0528 C.ar    1  LIG1        0.0509
      5 C          -4.3639    0.2485   -0.0526 C.ar    1  LIG1        0.0919
      6 N          -4.4123   -0.4695   -1.1745 N.ar    1  LIG1       -0.2311
      7 H          -2.2551   -1.6692    1.7764 H       1  LIG1        0.0631
      8 H          -2.3197   -2.9814   -0.3461 H       1  LIG1        0.0652
      9 N          -3.8316   -2.2831   -2.4484 N.pl3   1  LIG1       -0.3431
     10 H          -4.2756   -1.7807   -3.2019 H       1  LIG1        0.1437
     11 H          -3.1305   -2.9606   -2.6982 H       1  LIG1        0.1437
     12 C          -3.6105    0.5607    2.2971 C.1     1  LIG1       -0.0675
     13 C          -3.5939    1.1692    3.3365 C.1     1  LIG1       -0.1138
     14 H          -3.6047    1.6944    4.2638 H       1  LIG1        0.1232
     15 C          -4.7227    2.7427    0.3133 C.ar    1  LIG1        0.1268
     16 C          -5.5691    3.8464    0.2245 C.ar    1  LIG1       -0.0086
     17 C          -5.2093    1.4823   -0.0502 C.ar    1  LIG1        0.0448
     18 C          -6.8784    3.7193   -0.2205 C.ar    1  LIG1        0.0227
     19 H          -5.1853    4.8143    0.5188 H       1  LIG1        0.0661
     20 C          -6.5185    1.3590   -0.5233 C.ar    1  LIG1       -0.0277
     21 C          -7.3625    2.4583   -0.6187 C.ar    1  LIG1        0.0346
     22 H          -6.8548    0.3808   -0.8455 H       1  LIG1        0.0644
     23 O          -3.4254    2.9669    0.6881 O.3     1  LIG1       -0.5061
     24 H          -3.2090    2.4251    1.4609 H       1  LIG1        0.2922
     25 N          -8.6892    2.3387   -1.0913 N.pl3   1  LIG1       -0.3574
     26 H          -8.9528    3.1436   -1.6541 H       1  LIG1        0.1423
     27 H          -8.8373    1.4807   -1.6087 H       1  LIG1        0.1423
     28 C          -7.7990    4.8758   -0.2987 C.ar    1  LIG1        0.0520
     29 C          -7.7975    6.0038   -1.0953 C.ar    1  LIG1       -0.0216
     30 C          -9.0278    6.6900   -0.8532 C.ar    1  LIG1       -0.0216
     31 C          -9.7273    5.9526    0.0870 C.ar    1  LIG1        0.0534
     32 N          -8.9678    4.8608    0.4046 N.ar    1  LIG1       -0.3536
     33 H          -9.2285    4.1535    1.0789 H       1  LIG1        0.1659
     34 C          -6.7221    6.4068   -2.0728 C.3     1  LIG1       -0.0374
     35 H          -7.1331    6.5160   -3.0786 H       1  LIG1        0.0278
     36 H          -5.9386    5.6491   -2.0992 H       1  LIG1        0.0278
     37 H          -6.2754    7.3608   -1.7853 H       1  LIG1        0.0278
     38 C          -9.4795    7.9507   -1.5488 C.3     1  LIG1       -0.0374
     39 H          -9.0504    8.8414   -1.0826 H       1  LIG1        0.0278
     40 H         -10.5667    8.0341   -1.5232 H       1  LIG1        0.0278
     41 H          -9.1617    7.9337   -2.5926 H       1  LIG1        0.0278
     42 C         -11.9233    5.0965    0.9863 C.ar    1  LIG1        0.1253
     43 C         -11.0437    6.1755    0.7106 C.ar    1  LIG1        0.0381
     44 C         -11.4731    7.4474    1.0641 C.ar    1  LIG1       -0.0479
     45 C         -12.7268    7.6330    1.6454 C.ar    1  LIG1       -0.0428
     46 C         -13.5029    6.5061    1.8663 C.ar    1  LIG1        0.0297
     47 N         -13.1152    5.2712    1.5467 N.ar    1  LIG1       -0.2401
     48 H         -10.8086    8.2869    0.9016 H       1  LIG1        0.0626
     49 H         -14.4835    6.5880    2.3196 H       1  LIG1        0.0830
     50 N         -11.5601    3.7849    0.7358 N.pl3   1  LIG1       -0.3426
     51 H         -12.3338    3.1432    0.8347 H       1  LIG1        0.1437
     52 H         -10.9356    3.5962   -0.0384 H       1  LIG1        0.1437
     53 H         -13.0792    8.6139    1.9284 H       1  LIG1        0.0633
@<TRIPOS>BOND
     1    10     9    1
     2    35    34    1
     3    11     9    1
     4    41    38    1
     5     9     1    1
     6    36    34    1
     7    34    37    1
     8    34    29    1
     9    26    25    1
    10    27    25    1
    11    38    40    1
    12    38    39    1
    13    38    30    1
    14     1     6   ar
    15     1     2   ar
    16     6     5   ar
    17    29    30   ar
    18    29    28   ar
    19    25    21    1
    20    30    31   ar
    21    22    20    1
    22    21    20   ar
    23    21    18   ar
    24    20    17   ar
    25     8     2    1
    26    28    18    1
    27    28    32   ar
    28     2     3   ar
    29    18    16   ar
    30     5    17    1
    31     5     4   ar
    32    17    15   ar
    33    52    50    1
    34    31    32   ar
    35    31    43    1
    36    16    15   ar
    37    16    19    1
    38    15    23    1
    39    32    33    1
    40    23    24    1
    41    43    42   ar
    42    43    44   ar
    43    50    51    1
    44    50    42    1
    45    48    44    1
    46     3     4   ar
    47     3     7    1
    48    42    47   ar
    49     4    12    1
    50    44    45   ar
    51    47    46   ar
    52    45    46   ar
    53    45    53    1
    54    46    49    1
    55    12    13    3
    56    13    14    1
