@<TRIPOS>MOLECULE
mol_data/opt/m06hf/geoms/mol2/6he6he-6he6he-.out
 54 57 0 0 0
SMALL
GASTEIGER

@<TRIPOS>ATOM
      1 C          -4.3583   -2.1404   -0.7932 C.ar    1  LIG1        0.1169
      2 C          -3.0298   -2.2853   -0.3338 C.ar    1  LIG1       -0.0209
      3 C          -2.4198   -1.1865    0.2205 C.ar    1  LIG1       -0.0410
      4 C          -3.1074    0.0374    0.3080 C.ar    1  LIG1        0.0508
      5 C          -4.4086    0.0887   -0.2092 C.ar    1  LIG1        0.0917
      6 N          -5.0094   -0.9807   -0.7308 N.ar    1  LIG1       -0.2311
      7 H          -1.4122   -1.2500    0.6093 H       1  LIG1        0.0631
      8 H          -2.5255   -3.2390   -0.4040 H       1  LIG1        0.0652
      9 N          -5.0515   -3.1956   -1.3048 N.pl3   1  LIG1       -0.3431
     10 H          -5.9292   -2.9790   -1.7500 H       1  LIG1        0.1437
     11 H          -4.5671   -4.0285   -1.5924 H       1  LIG1        0.1437
     12 C          -2.4899    1.1654    0.9550 C.1     1  LIG1       -0.0675
     13 C          -1.9508    2.0985    1.4892 C.1     1  LIG1       -0.1138
     14 H          -1.4856    2.9266    1.9718 H       1  LIG1        0.1232
     15 C          -4.8621    2.5704   -0.7162 C.ar    1  LIG1        0.1262
     16 C          -5.2483    1.3227   -0.1610 C.ar    1  LIG1        0.0423
     17 C          -6.5119    1.2377    0.3862 C.ar    1  LIG1       -0.0317
     18 C          -7.3580    2.3531    0.4258 C.ar    1  LIG1        0.0515
     19 C          -6.8851    3.5412   -0.1526 C.ar    1  LIG1        0.0918
     20 N          -5.6740    3.6307   -0.6917 N.ar    1  LIG1       -0.2304
     21 H          -6.8463    0.2953    0.8010 H       1  LIG1        0.0638
     22 N          -3.6836    2.7495   -1.3688 N.pl3   1  LIG1       -0.3426
     23 H          -2.9017    2.1497   -1.1624 H       1  LIG1        0.1437
     24 H          -3.4839    3.7034   -1.6279 H       1  LIG1        0.1437
     25 C          -8.6332    2.2691    1.0893 C.1     1  LIG1       -0.0675
     26 C          -9.6995    2.1779    1.6390 C.1     1  LIG1       -0.1138
     27 H         -10.6410    2.1076    2.1334 H       1  LIG1        0.1232
     28 C          -8.9816    4.9262   -0.7012 C.ar    1  LIG1        0.1262
     29 C          -7.6776    4.8066   -0.1530 C.ar    1  LIG1        0.0423
     30 C          -7.0917    5.9538    0.3401 C.ar    1  LIG1       -0.0317
     31 C          -7.7777    7.1749    0.3349 C.ar    1  LIG1        0.0515
     32 C          -9.0640    7.1894   -0.2278 C.ar    1  LIG1        0.0918
     33 N          -9.6329    6.0928   -0.7158 N.ar    1  LIG1       -0.2304
     34 H          -6.0900    5.9020    0.7470 H       1  LIG1        0.0638
     35 N          -9.6189    3.8918   -1.3061 N.pl3   1  LIG1       -0.3426
     36 H         -10.5779    4.0699   -1.5614 H       1  LIG1        0.1437
     37 H          -9.3554    2.9437   -1.0942 H       1  LIG1        0.1437
     38 C          -7.1836    8.3415    0.9339 C.1     1  LIG1       -0.0675
     39 C          -6.6695    9.3106    1.4271 C.1     1  LIG1       -0.1138
     40 H          -6.2277   10.1722    1.8707 H       1  LIG1        0.1232
     41 C          -9.4920    9.6280   -0.8905 C.ar    1  LIG1        0.1255
     42 C          -9.9049    8.4230   -0.2674 C.ar    1  LIG1        0.0423
     43 C         -11.1815    8.3748    0.2609 C.ar    1  LIG1       -0.0324
     44 C         -12.0039    9.5053    0.2264 C.ar    1  LIG1        0.0435
     45 C         -11.4805   10.6525   -0.3728 C.ar    1  LIG1        0.0451
     46 N         -10.2752   10.7120   -0.9165 N.ar    1  LIG1       -0.2388
     47 H         -11.5371    7.4525    0.7021 H       1  LIG1        0.0638
     48 H         -12.0759   11.5572   -0.4134 H       1  LIG1        0.0843
     49 N          -8.3096    9.7388   -1.5582 N.pl3   1  LIG1       -0.3426
     50 H          -7.5539    9.1123   -1.3338 H       1  LIG1        0.1437
     51 H          -8.0656   10.6795   -1.8268 H       1  LIG1        0.1437
     52 C         -13.3303    9.5026    0.7856 C.1     1  LIG1       -0.0681
     53 C         -14.4386    9.5062    1.2512 C.1     1  LIG1       -0.1139
     54 H         -15.4204    9.5083    1.6630 H       1  LIG1        0.1232
@<TRIPOS>BOND
     1    51    49    1
     2    10     9    1
     3    24    22    1
     4    11     9    1
     5    36    35    1
     6    49    50    1
     7    49    41    1
     8    22    23    1
     9    22    15    1
    10    35    37    1
    11    35    28    1
    12     9     1    1
    13    46    41   ar
    14    46    45   ar
    15    41    42   ar
    16     1     6   ar
    17     1     2   ar
    18     6     5   ar
    19    15    20   ar
    20    15    16   ar
    21    33    28   ar
    22    33    32   ar
    23    28    29   ar
    24    20    19   ar
    25    48    45    1
    26     8     2    1
    27    45    44   ar
    28     2     3   ar
    29    42    32    1
    30    42    43   ar
    31    32    31   ar
    32     5    16    1
    33     5     4   ar
    34    16    17   ar
    35    29    19    1
    36    29    30   ar
    37    19    18   ar
    38     3     4   ar
    39     3     7    1
    40    44    43   ar
    41    44    52    1
    42    43    47    1
    43     4    12    1
    44    31    30   ar
    45    31    38    1
    46    30    34    1
    47    17    18   ar
    48    17    21    1
    49    18    25    1
    50    52    53    3
    51    38    39    3
    52    12    13    3
    53    25    26    3
    54    53    54    1
    55    39    40    1
    56    13    14    1
    57    26    27    1
