@<TRIPOS>MOLECULE
mol_data/opt/m06hf/geoms/mol2/6he6he6he-6he-.out
 54 57 0 0 0
SMALL
GASTEIGER

@<TRIPOS>ATOM
      1 C          -4.2207   -2.0779   -1.0721 C.ar    1  LIG1        0.1169
      2 C          -3.0791   -2.3157   -0.2805 C.ar    1  LIG1       -0.0209
      3 C          -2.6920   -1.3278    0.5930 C.ar    1  LIG1       -0.0410
      4 C          -3.4063   -0.1200    0.6741 C.ar    1  LIG1        0.0508
      5 C          -4.5086    0.0403   -0.1786 C.ar    1  LIG1        0.0917
      6 N          -4.8965   -0.9342   -1.0092 N.ar    1  LIG1       -0.2311
      7 H          -1.8363   -1.4686    1.2400 H       1  LIG1        0.0631
      8 H          -2.5451   -3.2526   -0.3518 H       1  LIG1        0.0652
      9 N          -4.7099   -3.0289   -1.9245 N.pl3   1  LIG1       -0.3431
     10 H          -5.3710   -2.7042   -2.6133 H       1  LIG1        0.1437
     11 H          -4.1147   -3.7950   -2.1936 H       1  LIG1        0.1437
     12 C          -3.0040    0.8586    1.6519 C.1     1  LIG1       -0.0675
     13 C          -2.6347    1.6381    2.4896 C.1     1  LIG1       -0.1138
     14 H          -2.3243    2.3359    3.2330 H       1  LIG1        0.1232
     15 C          -6.7311    1.2789   -0.3535 C.ar    1  LIG1        0.1262
     16 C          -5.3119    1.2948   -0.2121 C.ar    1  LIG1        0.0423
     17 C          -4.7090    2.5318   -0.1029 C.ar    1  LIG1       -0.0317
     18 C          -5.4669    3.7108   -0.0961 C.ar    1  LIG1        0.0515
     19 C          -6.8580    3.5859   -0.2238 C.ar    1  LIG1        0.0918
     20 N          -7.4525    2.4044   -0.3395 N.ar    1  LIG1       -0.2304
     21 H          -3.6345    2.6038   -0.0007 H       1  LIG1        0.0638
     22 N          -7.4296    0.1293   -0.4772 N.pl3   1  LIG1       -0.3426
     23 H          -8.4138    0.2347   -0.6670 H       1  LIG1        0.1437
     24 H          -6.9341   -0.6932   -0.7885 H       1  LIG1        0.1437
     25 C          -4.8167    4.9806    0.0975 C.1     1  LIG1       -0.0675
     26 C          -4.2542    6.0335    0.2491 C.1     1  LIG1       -0.1138
     27 H          -3.7664    6.9685    0.4017 H       1  LIG1        0.1232
     28 C          -7.7006    5.8681   -1.0597 C.ar    1  LIG1        0.1262
     29 C          -7.7829    4.7575   -0.1839 C.ar    1  LIG1        0.0423
     30 C          -8.8349    4.7378    0.7085 C.ar    1  LIG1       -0.0317
     31 C          -9.7622    5.7854    0.7695 C.ar    1  LIG1        0.0515
     32 C          -9.6026    6.8428   -0.1404 C.ar    1  LIG1        0.0918
     33 N          -8.5877    6.8635   -1.0064 N.ar    1  LIG1       -0.2304
     34 H          -8.9393    3.8945    1.3789 H       1  LIG1        0.0638
     35 N          -6.7698    5.9529   -2.0493 N.pl3   1  LIG1       -0.3426
     36 H          -5.8992    5.4556   -1.9533 H       1  LIG1        0.1437
     37 H          -6.7505    6.8276   -2.5497 H       1  LIG1        0.1437
     38 C         -10.7837    5.7478    1.7846 C.1     1  LIG1       -0.0675
     39 C         -11.6104    5.6732    2.6543 C.1     1  LIG1       -0.1138
     40 H         -12.3454    5.6242    3.4237 H       1  LIG1        0.1232
     41 C         -10.1134    9.3242   -0.4166 C.ar    1  LIG1        0.1255
     42 C         -10.5546    7.9889   -0.1955 C.ar    1  LIG1        0.0423
     43 C         -11.9158    7.7855   -0.0447 C.ar    1  LIG1       -0.0324
     44 C         -12.8022    8.8671   -0.0634 C.ar    1  LIG1        0.0435
     45 C         -12.2539   10.1384   -0.2378 C.ar    1  LIG1        0.0451
     46 N         -10.9614   10.3600   -0.4154 N.ar    1  LIG1       -0.2388
     47 H         -12.3042    6.7855    0.0895 H       1  LIG1        0.0638
     48 H         -12.9008   11.0079   -0.2444 H       1  LIG1        0.0843
     49 N          -8.8039    9.6267   -0.6042 N.pl3   1  LIG1       -0.3426
     50 H          -8.2078    8.8853   -0.9431 H       1  LIG1        0.1437
     51 H          -8.6209   10.5818   -0.8680 H       1  LIG1        0.1437
     52 C         -14.2215    8.6846    0.0923 C.1     1  LIG1       -0.0681
     53 C         -15.4063    8.5293    0.2236 C.1     1  LIG1       -0.1139
     54 H         -16.4554    8.3890    0.3397 H       1  LIG1        0.1232
@<TRIPOS>BOND
     1    10     9    1
     2    37    35    1
     3    11     9    1
     4    35    36    1
     5    35    28    1
     6     9     1    1
     7     1     6   ar
     8     1     2   ar
     9    28    33   ar
    10    28    29   ar
    11     6     5   ar
    12    33    32   ar
    13    50    49    1
    14    51    49    1
    15    24    22    1
    16    23    22    1
    17    49    41    1
    18    22    15    1
    19    41    46   ar
    20    41    42   ar
    21    46    45   ar
    22    15    20   ar
    23    15    16   ar
    24     8     2    1
    25    20    19   ar
    26     2     3   ar
    27    48    45    1
    28    45    44   ar
    29    19    29    1
    30    19    18   ar
    31    16     5    1
    32    16    17   ar
    33    42    32    1
    34    42    43   ar
    35    29    30   ar
    36     5     4   ar
    37    32    31   ar
    38    17    18   ar
    39    17    21    1
    40    18    25    1
    41    44    43   ar
    42    44    52    1
    43    43    47    1
    44    52    53    3
    45    25    26    3
    46    53    54    1
    47    26    27    1
    48     3     4   ar
    49     3     7    1
    50     4    12    1
    51    30    31   ar
    52    30    34    1
    53    31    38    1
    54    12    13    3
    55    38    39    3
    56    13    14    1
    57    39    40    1
