@<TRIPOS>MOLECULE
mol_data/opt/m06hf/geoms/mol2/6he6he6he6he.out
 54 57 0 0 0
SMALL
GASTEIGER

@<TRIPOS>ATOM
      1 C          -3.9283   -1.8709   -1.4653 C.ar    1  LIG1        0.1169
      2 C          -2.8761   -2.1832   -0.5801 C.ar    1  LIG1       -0.0209
      3 C          -2.6647   -1.3390    0.4833 C.ar    1  LIG1       -0.0410
      4 C          -3.4626   -0.1954    0.6621 C.ar    1  LIG1        0.0508
      5 C          -4.4616    0.0522   -0.2904 C.ar    1  LIG1        0.0917
      6 N          -4.6829   -0.7874   -1.3085 N.ar    1  LIG1       -0.2311
      7 H          -1.8856   -1.5461    1.2049 H       1  LIG1        0.0631
      8 H          -2.2752   -3.0691   -0.7310 H       1  LIG1        0.0652
      9 N          -4.2449   -2.6895   -2.5147 N.pl3   1  LIG1       -0.3431
     10 H          -4.8387   -2.2857   -3.2231 H       1  LIG1        0.1437
     11 H          -3.5664   -3.3654   -2.8249 H       1  LIG1        0.1437
     12 C          -3.2482    0.6295    1.8231 C.1     1  LIG1       -0.0675
     13 C          -3.0413    1.2838    2.8104 C.1     1  LIG1       -0.1138
     14 H          -2.8758    1.8708    3.6842 H       1  LIG1        0.1232
     15 C          -6.7199    1.2072   -0.5359 C.ar    1  LIG1        0.1262
     16 C          -5.3311    1.2610   -0.2308 C.ar    1  LIG1        0.0423
     17 C          -4.8195    2.4927    0.1257 C.ar    1  LIG1       -0.0317
     18 C          -5.6338    3.6303    0.2069 C.ar    1  LIG1        0.0515
     19 C          -6.9945    3.4742   -0.0968 C.ar    1  LIG1        0.0918
     20 N          -7.4974    2.2878   -0.4429 N.ar    1  LIG1       -0.2304
     21 H          -3.7683    2.5953    0.3584 H       1  LIG1        0.0638
     22 N          -7.3324    0.0529   -0.9008 N.pl3   1  LIG1       -0.3426
     23 H          -8.2727    0.1530   -1.2500 H       1  LIG1        0.1437
     24 H          -6.7420   -0.6728   -1.2831 H       1  LIG1        0.1437
     25 C          -5.0486    4.8701    0.6487 C.1     1  LIG1       -0.0675
     26 C          -4.5218    5.8828    1.0279 C.1     1  LIG1       -0.1138
     27 H          -4.0742    6.7883    1.3672 H       1  LIG1        0.1232
     28 C          -9.2743    4.4748    0.4430 C.ar    1  LIG1        0.1262
     29 C          -7.9502    4.6159   -0.0584 C.ar    1  LIG1        0.0423
     30 C          -7.5857    5.8712   -0.5039 C.ar    1  LIG1       -0.0317
     31 C          -8.4658    6.9593   -0.4359 C.ar    1  LIG1        0.0515
     32 C          -9.7423    6.7279    0.1004 C.ar    1  LIG1        0.0918
     33 N         -10.1047    5.5164    0.5254 N.ar    1  LIG1       -0.2304
     34 H          -6.5945    6.0335   -0.9053 H       1  LIG1        0.0638
     35 N          -9.7483    3.2884    0.8977 N.pl3   1  LIG1       -0.3426
     36 H         -10.7376    3.2582    1.0873 H       1  LIG1        0.1437
     37 H          -9.2817    2.4552    0.5663 H       1  LIG1        0.1437
     38 C          -7.9940    8.2534   -0.8576 C.1     1  LIG1       -0.0675
     39 C          -7.5517    9.3134   -1.2151 C.1     1  LIG1       -0.1138
     40 H          -7.1748   10.2617   -1.5218 H       1  LIG1        0.1232
     41 C         -11.6110    7.9113    1.3592 C.ar    1  LIG1        0.1255
     42 C         -10.7605    7.8085    0.2212 C.ar    1  LIG1        0.0423
     43 C         -10.9200    8.7505   -0.7810 C.ar    1  LIG1       -0.0324
     44 C         -11.8535    9.7827   -0.6433 C.ar    1  LIG1        0.0435
     45 C         -12.5974    9.8161    0.5370 C.ar    1  LIG1        0.0451
     46 N         -12.4872    8.9145    1.4988 N.ar    1  LIG1       -0.2388
     47 H         -10.3199    8.6935   -1.6789 H       1  LIG1        0.0638
     48 H         -13.3212   10.6071    0.6947 H       1  LIG1        0.0843
     49 N         -11.5558    7.0229    2.3809 N.pl3   1  LIG1       -0.3426
     50 H         -12.2652    7.1317    3.0878 H       1  LIG1        0.1437
     51 H         -11.1672    6.1118    2.1850 H       1  LIG1        0.1437
     52 C         -12.0447   10.7751   -1.6680 C.1     1  LIG1       -0.0681
     53 C         -12.2072   11.6040   -2.5237 C.1     1  LIG1       -0.1139
     54 H         -12.3511   12.3374   -3.2822 H       1  LIG1        0.1232
@<TRIPOS>BOND
     1    54    53    1
     2    10     9    1
     3    11     9    1
     4    53    52    3
     5     9     1    1
     6    47    43    1
     7    52    44    1
     8    40    39    1
     9     1     6   ar
    10     1     2   ar
    11     6     5   ar
    12    24    22    1
    13    23    22    1
    14    39    38    3
    15    34    30    1
    16    22    15    1
    17    38    31    1
    18    43    44   ar
    19    43    42   ar
    20     8     2    1
    21    44    45   ar
    22     2     3   ar
    23    15    20   ar
    24    15    16   ar
    25    30    31   ar
    26    30    29   ar
    27    20    19   ar
    28    31    32   ar
    29     5    16    1
    30     5     4   ar
    31    16    17   ar
    32    19    29    1
    33    19    18   ar
    34    29    28   ar
    35    32    42    1
    36    32    33   ar
    37    17    18   ar
    38    17    21    1
    39    18    25    1
    40    42    41   ar
    41    28    33   ar
    42    28    35    1
    43     3     4   ar
    44     3     7    1
    45    45    48    1
    46    45    46   ar
    47    37    35    1
    48    25    26    3
    49     4    12    1
    50    35    36    1
    51    26    27    1
    52    41    46   ar
    53    41    49    1
    54    12    13    3
    55    51    49    1
    56    49    50    1
    57    13    14    1
