@<TRIPOS>MOLECULE
mol_data/opt/m06hf/geoms/mol2/6he6he-6he-6he-.out
 54 57 0 0 0
SMALL
GASTEIGER

@<TRIPOS>ATOM
      1 C          -4.6051   -2.2100   -0.6698 C.ar    1  LIG1        0.1169
      2 C          -3.2146   -2.3844   -0.4857 C.ar    1  LIG1       -0.0209
      3 C          -2.4666   -1.2788   -0.1622 C.ar    1  LIG1       -0.0410
      4 C          -3.0807   -0.0197   -0.0369 C.ar    1  LIG1        0.0508
      5 C          -4.4592    0.0554   -0.2758 C.ar    1  LIG1        0.0917
      6 N          -5.1913   -1.0184   -0.5696 N.ar    1  LIG1       -0.2311
      7 H          -1.4024   -1.3627    0.0145 H       1  LIG1        0.0631
      8 H          -2.7670   -3.3636   -0.5812 H       1  LIG1        0.0652
      9 N          -5.4229   -3.2642   -0.9395 N.pl3   1  LIG1       -0.3431
     10 H          -6.3692   -3.0414   -1.2049 H       1  LIG1        0.1437
     11 H          -5.0371   -4.1409   -1.2452 H       1  LIG1        0.1437
     12 C          -2.3071    1.1238    0.3711 C.1     1  LIG1       -0.0675
     13 C          -1.6418    2.0688    0.7039 C.1     1  LIG1       -0.1138
     14 H          -1.0640    2.9078    1.0155 H       1  LIG1        0.1232
     15 C          -4.9279    2.4989   -0.9129 C.ar    1  LIG1        0.1262
     16 C          -5.2253    1.3318   -0.1653 C.ar    1  LIG1        0.0423
     17 C          -6.3377    1.3729    0.6484 C.ar    1  LIG1       -0.0317
     18 C          -7.1226    2.5284    0.7578 C.ar    1  LIG1        0.0515
     19 C          -6.7526    3.6339   -0.0235 C.ar    1  LIG1        0.0918
     20 N          -5.6776    3.5980   -0.8135 N.ar    1  LIG1       -0.2304
     21 H          -6.6057    0.4926    1.2184 H       1  LIG1        0.0638
     22 N          -3.9164    2.5476   -1.8197 N.pl3   1  LIG1       -0.3426
     23 H          -3.1391    1.9130   -1.7391 H       1  LIG1        0.1437
     24 H          -3.7480    3.4458   -2.2441 H       1  LIG1        0.1437
     25 C          -8.2191    2.5386    1.6917 C.1     1  LIG1       -0.0675
     26 C          -9.1182    2.5075    2.4895 C.1     1  LIG1       -0.1138
     27 H          -9.9146    2.4996    3.1971 H       1  LIG1        0.1232
     28 C          -6.9090    6.1779   -0.0765 C.ar    1  LIG1        0.1262
     29 C          -7.5352    4.9024   -0.0225 C.ar    1  LIG1        0.0423
     30 C          -8.9153    4.8920    0.0342 C.ar    1  LIG1       -0.0317
     31 C          -9.6589    6.0790    0.0654 C.ar    1  LIG1        0.0515
     32 C          -8.9500    7.2899    0.0269 C.ar    1  LIG1        0.0918
     33 N          -7.6173    7.3074   -0.0332 N.ar    1  LIG1       -0.2304
     34 H          -9.4469    3.9508    0.0634 H       1  LIG1        0.0638
     35 N          -5.5593    6.3165   -0.1395 N.pl3   1  LIG1       -0.3426
     36 H          -5.0468    5.5236   -0.5010 H       1  LIG1        0.1437
     37 H          -5.2343    7.2472   -0.3512 H       1  LIG1        0.1437
     38 C         -11.0911    5.9920    0.1917 C.1     1  LIG1       -0.0675
     39 C         -12.2820    5.8698    0.3044 C.1     1  LIG1       -0.1138
     40 H         -13.3381    5.7787    0.4081 H       1  LIG1        0.1232
     41 C          -9.1050    9.7239    0.7586 C.ar    1  LIG1        0.1255
     42 C          -9.6321    8.6144    0.0361 C.ar    1  LIG1        0.0423
     43 C         -10.8028    8.8153   -0.6749 C.ar    1  LIG1       -0.0324
     44 C         -11.4511   10.0542   -0.6409 C.ar    1  LIG1        0.0435
     45 C         -10.8695   11.0569    0.1360 C.ar    1  LIG1        0.0451
     46 N          -9.7383   10.9030    0.8047 N.ar    1  LIG1       -0.2388
     47 H         -11.2249    8.0103   -1.2614 H       1  LIG1        0.0638
     48 H         -11.3447   12.0284    0.2044 H       1  LIG1        0.0843
     49 N          -7.9551    9.6386    1.4698 N.pl3   1  LIG1       -0.3426
     50 H          -7.3019    8.9125    1.2136 H       1  LIG1        0.1437
     51 H          -7.6232   10.5059    1.8603 H       1  LIG1        0.1437
     52 C         -12.6689   10.2938   -1.3697 C.1     1  LIG1       -0.0681
     53 C         -13.6867   10.4960   -1.9768 C.1     1  LIG1       -0.1139
     54 H         -14.5876   10.6755   -2.5151 H       1  LIG1        0.1232
@<TRIPOS>BOND
     1    54    53    1
     2    24    22    1
     3    53    52    3
     4    22    23    1
     5    22    15    1
     6    52    44    1
     7    47    43    1
     8    11     9    1
     9    10     9    1
    10     9     1    1
    11    15    20   ar
    12    15    16   ar
    13    20    19   ar
    14    43    44   ar
    15    43    42   ar
    16     1     6   ar
    17     1     2   ar
    18    44    45   ar
    19     8     2    1
    20     6     5   ar
    21    36    35    1
    22     2     3   ar
    23    37    35    1
    24     5    16    1
    25     5     4   ar
    26    16    17   ar
    27     3     4   ar
    28     3     7    1
    29    35    28    1
    30    28    33   ar
    31    28    29   ar
    32     4    12    1
    33    33    32   ar
    34    19    29    1
    35    19    18   ar
    36    29    30   ar
    37    32    42    1
    38    32    31   ar
    39    30    34    1
    40    30    31   ar
    41    42    41   ar
    42    31    38    1
    43    45    48    1
    44    45    46   ar
    45    38    39    3
    46    39    40    1
    47    12    13    3
    48    17    18   ar
    49    17    21    1
    50    13    14    1
    51    18    25    1
    52    41    46   ar
    53    41    49    1
    54    50    49    1
    55    49    51    1
    56    25    26    3
    57    26    27    1
