@<TRIPOS>MOLECULE
mol_data/opt/m06hf/geoms/mol2/6he6he-4he6he.out
 55 58 0 0 0
SMALL
GASTEIGER

@<TRIPOS>ATOM
      1 C          -4.6765   -2.2607   -0.1992 C.ar    1  LIG1        0.1169
      2 C          -3.2753   -2.4397   -0.1568 C.ar    1  LIG1       -0.0209
      3 C          -2.4882   -1.3174   -0.0734 C.ar    1  LIG1       -0.0410
      4 C          -3.0758   -0.0398   -0.0461 C.ar    1  LIG1        0.0508
      5 C          -4.4722    0.0342   -0.1318 C.ar    1  LIG1        0.0917
      6 N          -5.2394   -1.0542   -0.1919 N.ar    1  LIG1       -0.2311
      7 H          -1.4110   -1.3999   -0.0119 H       1  LIG1        0.0631
      8 H          -2.8477   -3.4324   -0.1708 H       1  LIG1        0.0652
      9 N          -5.5271   -3.3240   -0.2260 N.pl3   1  LIG1       -0.3431
     10 H          -6.4958   -3.1161   -0.4112 H       1  LIG1        0.1437
     11 H          -5.1853   -4.2396   -0.4628 H       1  LIG1        0.1437
     12 C          -2.2501    1.1289    0.1133 C.1     1  LIG1       -0.0675
     13 C          -1.5411    2.0930    0.2363 C.1     1  LIG1       -0.1138
     14 H          -0.9228    2.9510    0.3663 H       1  LIG1        0.1232
     15 C          -5.0009    2.3905   -1.0144 C.ar    1  LIG1        0.1262
     16 C          -5.2172    1.3278   -0.1026 C.ar    1  LIG1        0.0423
     17 C          -6.2390    1.4820    0.8121 C.ar    1  LIG1       -0.0317
     18 C          -7.0085    2.6508    0.8578 C.ar    1  LIG1        0.0514
     19 C          -6.7241    3.6477   -0.0883 C.ar    1  LIG1        0.0902
     20 N          -5.7377    3.5023   -0.9748 N.ar    1  LIG1       -0.2305
     21 H          -6.4451    0.6808    1.5102 H       1  LIG1        0.0638
     22 N          -4.0915    2.3173   -2.0256 N.pl3   1  LIG1       -0.3426
     23 H          -3.2922    1.7123   -1.9303 H       1  LIG1        0.1437
     24 H          -3.9676    3.1672   -2.5531 H       1  LIG1        0.1437
     25 C          -8.0091    2.7923    1.8842 C.1     1  LIG1       -0.0675
     26 C          -8.8292    2.8755    2.7592 C.1     1  LIG1       -0.1138
     27 H          -9.5573    2.9684    3.5310 H       1  LIG1        0.1232
     28 C          -6.8766    6.1648   -0.3563 C.ar    1  LIG1        0.0345
     29 C          -7.6741    7.3219   -0.3839 C.ar    1  LIG1       -0.0314
     30 C          -7.5103    4.9155   -0.1637 C.ar    1  LIG1        0.0234
     31 C          -9.0533    7.2660   -0.2610 C.ar    1  LIG1        0.0026
     32 H          -7.2004    8.2856   -0.5280 H       1  LIG1        0.0643
     33 C          -8.8962    4.8654   -0.0589 C.ar    1  LIG1       -0.0348
     34 C          -9.6828    6.0170   -0.1021 C.ar    1  LIG1        0.0332
     35 H          -9.3855    3.9093    0.0685 H       1  LIG1        0.0637
     36 N          -5.5122    6.2686   -0.4707 N.pl3   1  LIG1       -0.3574
     37 H          -5.0520    5.4412   -0.8271 H       1  LIG1        0.1423
     38 H          -5.1582    7.1506   -0.8068 H       1  LIG1        0.1423
     39 C         -11.1159    5.9150    0.0315 C.1     1  LIG1       -0.0690
     40 C         -12.3113    5.8254    0.1277 C.1     1  LIG1       -0.1139
     41 H         -13.3696    5.7526    0.2213 H       1  LIG1        0.1232
     42 C         -10.7372    8.8217   -1.3544 C.ar    1  LIG1        0.1240
     43 C          -9.8392    8.5346   -0.2933 C.ar    1  LIG1        0.0240
     44 C          -9.6841    9.4883    0.6926 C.ar    1  LIG1       -0.0338
     45 C         -10.4084   10.6875    0.6349 C.ar    1  LIG1        0.0435
     46 C         -11.2698   10.8593   -0.4473 C.ar    1  LIG1        0.0451
     47 N         -11.4301    9.9610   -1.4098 N.ar    1  LIG1       -0.2389
     48 H          -9.0080    9.3026    1.5177 H       1  LIG1        0.0637
     49 H         -11.8531   11.7685   -0.5315 H       1  LIG1        0.0843
     50 N         -10.8957    7.9640   -2.4015 N.pl3   1  LIG1       -0.3427
     51 H         -11.6769    8.1702   -3.0047 H       1  LIG1        0.1437
     52 H         -10.6537    6.9942   -2.2708 H       1  LIG1        0.1437
     53 C         -10.2806   11.7015    1.6485 C.1     1  LIG1       -0.0681
     54 C         -10.1758   12.5480    2.4957 C.1     1  LIG1       -0.1139
     55 H         -10.0848   13.2963    3.2478 H       1  LIG1        0.1232
@<TRIPOS>BOND
     1    51    50    1
     2    24    22    1
     3    50    52    1
     4    50    42    1
     5    22    23    1
     6    22    15    1
     7    47    42   ar
     8    47    46   ar
     9    42    43   ar
    10    15    20   ar
    11    15    16   ar
    12    20    19   ar
    13    37    36    1
    14    38    36    1
    15    49    46    1
    16    32    29    1
    17    36    28    1
    18    11     9    1
    19    46    45   ar
    20    10     9    1
    21    29    28   ar
    22    29    31   ar
    23    28    30   ar
    24    43    31    1
    25    43    44   ar
    26    31    34   ar
    27     9     1    1
    28     1     6   ar
    29     1     2   ar
    30     6     5   ar
    31     8     2    1
    32    30    19    1
    33    30    33   ar
    34     2     3   ar
    35     5    16    1
    36     5     4   ar
    37    16    17   ar
    38    34    33   ar
    39    34    39    1
    40    19    18   ar
    41     3     4   ar
    42     3     7    1
    43    33    35    1
    44     4    12    1
    45    39    40    3
    46    12    13    3
    47    40    41    1
    48    13    14    1
    49    45    44   ar
    50    45    53    1
    51    44    48    1
    52    17    18   ar
    53    17    21    1
    54    18    25    1
    55    53    54    3
    56    25    26    3
    57    54    55    1
    58    26    27    1
