@<TRIPOS>MOLECULE
mol_data/opt/m06hf/geoms/mol2/6he6he6he6he-.out
 54 57 0 0 0
SMALL
GASTEIGER

@<TRIPOS>ATOM
      1 C          -3.7297   -1.8160   -1.2714 C.ar    1  LIG1        0.1169
      2 C          -2.7551   -2.1131   -0.2974 C.ar    1  LIG1       -0.0209
      3 C          -2.6516   -1.2667    0.7803 C.ar    1  LIG1       -0.0410
      4 C          -3.4798   -0.1356    0.8879 C.ar    1  LIG1        0.0508
      5 C          -4.3965    0.0968   -0.1471 C.ar    1  LIG1        0.0917
      6 N          -4.5120   -0.7447   -1.1813 N.ar    1  LIG1       -0.2311
      7 H          -1.9362   -1.4624    1.5679 H       1  LIG1        0.0631
      8 H          -2.1309   -2.9904   -0.3931 H       1  LIG1        0.0652
      9 N          -3.9397   -2.6376   -2.3447 N.pl3   1  LIG1       -0.3431
     10 H          -4.4790   -2.2447   -3.1009 H       1  LIG1        0.1437
     11 H          -3.2249   -3.3009   -2.5956 H       1  LIG1        0.1437
     12 C          -3.3775    0.6906    2.0633 C.1     1  LIG1       -0.0675
     13 C          -3.2586    1.3469    3.0635 C.1     1  LIG1       -0.1138
     14 H          -3.1685    1.9378    3.9457 H       1  LIG1        0.1232
     15 C          -6.6450    1.2062   -0.6020 C.ar    1  LIG1        0.1262
     16 C          -5.2933    1.2865   -0.1636 C.ar    1  LIG1        0.0423
     17 C          -4.8476    2.5261    0.2503 C.ar    1  LIG1       -0.0317
     18 C          -5.6911    3.6453    0.2606 C.ar    1  LIG1        0.0515
     19 C          -7.0110    3.4647   -0.1808 C.ar    1  LIG1        0.0918
     20 N          -7.4499    2.2704   -0.5811 N.ar    1  LIG1       -0.2304
     21 H          -3.8267    2.6490    0.5850 H       1  LIG1        0.0638
     22 N          -7.1979    0.0434   -1.0275 N.pl3   1  LIG1       -0.3426
     23 H          -8.1038    0.1267   -1.4618 H       1  LIG1        0.1437
     24 H          -6.5618   -0.6717   -1.3518 H       1  LIG1        0.1437
     25 C          -5.1767    4.8904    0.7700 C.1     1  LIG1       -0.0675
     26 C          -4.7045    5.9047    1.2103 C.1     1  LIG1       -0.1138
     27 H          -4.3049    6.8111    1.6016 H       1  LIG1        0.1232
     28 C          -9.3653    4.4051    0.0952 C.ar    1  LIG1        0.1262
     29 C          -7.9913    4.5846   -0.2416 C.ar    1  LIG1        0.0423
     30 C          -7.6038    5.8515   -0.6310 C.ar    1  LIG1       -0.0317
     31 C          -8.5192    6.9119   -0.6627 C.ar    1  LIG1        0.0515
     32 C          -9.8467    6.6334   -0.3028 C.ar    1  LIG1        0.0918
     33 N         -10.2355    5.4197    0.0700 N.ar    1  LIG1       -0.2304
     34 H          -6.5746    6.0428   -0.9026 H       1  LIG1        0.0638
     35 N          -9.8589    3.2101    0.4881 N.pl3   1  LIG1       -0.3426
     36 H         -10.8583    3.1694    0.6112 H       1  LIG1        0.1437
     37 H          -9.3397    2.3815    0.2356 H       1  LIG1        0.1437
     38 C          -8.0712    8.2371   -1.0024 C.1     1  LIG1       -0.0675
     39 C          -7.6817    9.3354   -1.3003 C.1     1  LIG1       -0.1138
     40 H          -7.3455   10.3146   -1.5508 H       1  LIG1        0.1232
     41 C         -11.2628    8.4803   -1.3816 C.ar    1  LIG1        0.1255
     42 C         -10.9086    7.6826   -0.2652 C.ar    1  LIG1        0.0423
     43 C         -11.6518    7.8268    0.8923 C.ar    1  LIG1       -0.0324
     44 C         -12.6793    8.7723    0.9592 C.ar    1  LIG1        0.0435
     45 C         -12.9196    9.5309   -0.1879 C.ar    1  LIG1        0.0451
     46 N         -12.2432    9.3882   -1.3163 N.ar    1  LIG1       -0.2388
     47 H         -11.4308    7.1974    1.7449 H       1  LIG1        0.0638
     48 H         -13.7018   10.2808   -0.1818 H       1  LIG1        0.0843
     49 N         -10.6849    8.3266   -2.6074 N.pl3   1  LIG1       -0.3426
     50 H          -9.7589    7.9350   -2.6683 H       1  LIG1        0.1437
     51 H         -10.9180    9.0521   -3.2683 H       1  LIG1        0.1437
     52 C         -13.4624    8.9658    2.1513 C.1     1  LIG1       -0.0681
     53 C         -14.1190    9.1295    3.1448 C.1     1  LIG1       -0.1139
     54 H         -14.6995    9.2722    4.0259 H       1  LIG1        0.1232
@<TRIPOS>BOND
     1    51    49    1
     2    10     9    1
     3    50    49    1
     4    49    41    1
     5    11     9    1
     6     9     1    1
     7    40    39    1
     8    23    22    1
     9    41    46   ar
    10    41    42   ar
    11    24    22    1
    12    46    45   ar
    13    39    38    3
    14     1     6   ar
    15     1     2   ar
    16     6     5   ar
    17    22    15    1
    18    38    31    1
    19    34    30    1
    20    31    30   ar
    21    31    32   ar
    22    30    29   ar
    23    15    20   ar
    24    15    16   ar
    25    20    19   ar
    26     8     2    1
    27    32    42    1
    28    32    33   ar
    29     2     3   ar
    30    42    43   ar
    31    29    19    1
    32    29    28   ar
    33    45    48    1
    34    45    44   ar
    35    19    18   ar
    36    16     5    1
    37    16    17   ar
    38     5     4   ar
    39    33    28   ar
    40    28    35    1
    41    37    35    1
    42    17    18   ar
    43    17    21    1
    44    18    25    1
    45    35    36    1
    46    25    26    3
    47     3     4   ar
    48     3     7    1
    49     4    12    1
    50    43    44   ar
    51    43    47    1
    52    44    52    1
    53    26    27    1
    54    12    13    3
    55    52    53    3
    56    13    14    1
    57    53    54    1
