@<TRIPOS>MOLECULE
mol_data/opt/m06hf/geoms/mol2/6he6he-6he-6he.out
 54 57 0 0 0
SMALL
GASTEIGER

@<TRIPOS>ATOM
      1 C          -4.1643   -2.0032    1.0488 C.ar    1  LIG1        0.1169
      2 C          -3.0455   -2.3007    0.2364 C.ar    1  LIG1       -0.0209
      3 C          -2.6557   -1.3624   -0.6878 C.ar    1  LIG1       -0.0410
      4 C          -3.3470   -0.1419   -0.7933 C.ar    1  LIG1        0.0508
      5 C          -4.4163    0.0742    0.0865 C.ar    1  LIG1        0.0917
      6 N          -4.8155   -0.8443    0.9648 N.ar    1  LIG1       -0.2311
      7 H          -1.8227   -1.5526   -1.3516 H       1  LIG1        0.0631
      8 H          -2.5254   -3.2426    0.3426 H       1  LIG1        0.0652
      9 N          -4.6151   -2.8822    1.9831 N.pl3   1  LIG1       -0.3431
     10 H          -5.4767   -2.6477    2.4496 H       1  LIG1        0.1437
     11 H          -4.3178   -3.8424    1.9716 H       1  LIG1        0.1437
     12 C          -2.9834    0.8131   -1.8074 C.1     1  LIG1       -0.0675
     13 C          -2.6619    1.6046   -2.6540 C.1     1  LIG1       -0.1138
     14 H          -2.3927    2.3053   -3.4103 H       1  LIG1        0.1232
     15 C          -4.6772    2.6207    0.2289 C.ar    1  LIG1        0.1262
     16 C          -5.2270    1.3274    0.0594 C.ar    1  LIG1        0.0423
     17 C          -6.5998    1.2364   -0.0421 C.ar    1  LIG1       -0.0317
     18 C          -7.4075    2.3803   -0.0611 C.ar    1  LIG1        0.0515
     19 C          -6.7644    3.6250    0.0381 C.ar    1  LIG1        0.0918
     20 N          -5.4436    3.7111    0.2059 N.ar    1  LIG1       -0.2304
     21 H          -7.0599    0.2585   -0.1044 H       1  LIG1        0.0638
     22 N          -3.3541    2.8263    0.4889 N.pl3   1  LIG1       -0.3426
     23 H          -2.6978    2.1038    0.2381 H       1  LIG1        0.1437
     24 H          -3.0396    3.7765    0.3620 H       1  LIG1        0.1437
     25 C          -8.8376    2.2225   -0.1312 C.1     1  LIG1       -0.0675
     26 C         -10.0246    2.0380   -0.1822 C.1     1  LIG1       -0.1138
     27 H         -11.0783    1.8879   -0.2222 H       1  LIG1        0.1232
     28 C          -7.1761    6.0294    0.7879 C.ar    1  LIG1        0.1262
     29 C          -7.5144    4.9093   -0.0283 C.ar    1  LIG1        0.0423
     30 C          -8.5632    5.0748   -0.9113 C.ar    1  LIG1       -0.0317
     31 C          -9.2957    6.2683   -0.9507 C.ar    1  LIG1        0.0515
     32 C          -8.9444    7.2739   -0.0356 C.ar    1  LIG1        0.0918
     33 N          -7.9038    7.1515    0.7793 N.ar    1  LIG1       -0.2304
     34 H          -8.8233    4.2797   -1.5974 H       1  LIG1        0.0638
     35 N          -6.1302    6.0066    1.6395 N.pl3   1  LIG1       -0.3426
     36 H          -5.4137    5.3096    1.4985 H       1  LIG1        0.1437
     37 H          -5.9409    6.8621    2.1361 H       1  LIG1        0.1437
     38 C         -10.3312    6.4475   -1.9343 C.1     1  LIG1       -0.0675
     39 C         -11.1988    6.5792   -2.7567 C.1     1  LIG1       -0.1138
     40 H         -11.9601    6.7121   -3.4897 H       1  LIG1        0.1232
     41 C         -11.0640    8.6873    0.2481 C.ar    1  LIG1        0.1255
     42 C          -9.6662    8.5783    0.0374 C.ar    1  LIG1        0.0423
     43 C          -8.9300    9.7474   -0.0204 C.ar    1  LIG1       -0.0324
     44 C          -9.5669   10.9889    0.0669 C.ar    1  LIG1        0.0435
     45 C         -10.9533   10.9809    0.2316 C.ar    1  LIG1        0.0451
     46 N         -11.6746    9.8754    0.3258 N.ar    1  LIG1       -0.2388
     47 H          -7.8553    9.6898   -0.1349 H       1  LIG1        0.0638
     48 H         -11.4920   11.9190    0.2951 H       1  LIG1        0.0843
     49 N         -11.8611    7.6022    0.4541 N.pl3   1  LIG1       -0.3426
     50 H         -12.8499    7.7987    0.4423 H       1  LIG1        0.1437
     51 H         -11.5639    6.6985    0.1240 H       1  LIG1        0.1437
     52 C          -8.8379   12.2275   -0.0126 C.1     1  LIG1       -0.0681
     53 C          -8.2317   13.2637   -0.0792 C.1     1  LIG1       -0.1139
     54 H          -7.6930   14.1803   -0.1384 H       1  LIG1        0.1232
@<TRIPOS>BOND
     1    40    39    1
     2    14    13    1
     3    39    38    3
     4    13    12    3
     5    38    31    1
     6    12     4    1
     7    34    30    1
     8     7     3    1
     9    31    30   ar
    10    31    32   ar
    11    30    29   ar
    12     4     3   ar
    13     4     5   ar
    14     3     2   ar
    15    27    26    1
    16    26    25    3
    17    54    53    1
    18    47    43    1
    19    25    18    1
    20    21    17    1
    21    53    52    3
    22    18    17   ar
    23    18    19   ar
    24    17    16   ar
    25    32    42    1
    26    32    33   ar
    27    29    19    1
    28    29    28   ar
    29    43    42   ar
    30    43    44   ar
    31    52    44    1
    32    42    41   ar
    33    19    20   ar
    34    16     5    1
    35    16    15   ar
    36    44    45   ar
    37     5     6   ar
    38    51    49    1
    39    20    15   ar
    40    15    22    1
    41    45    48    1
    42    45    46   ar
    43     2     8    1
    44     2     1   ar
    45    23    22    1
    46    41    46   ar
    47    41    49    1
    48    24    22    1
    49    50    49    1
    50    33    28   ar
    51    28    35    1
    52     6     1   ar
    53     1     9    1
    54    36    35    1
    55    35    37    1
    56    11     9    1
    57     9    10    1
