@<TRIPOS>MOLECULE
mol_data/opt/m06hf/geoms/mol2/6he6he6he-6he.out
 54 57 0 0 0
SMALL
GASTEIGER

@<TRIPOS>ATOM
      1 C          -4.3856   -2.2458   -0.3376 C.ar    1  LIG1        0.1169
      2 C          -3.0209   -2.2955    0.0109 C.ar    1  LIG1       -0.0209
      3 C          -2.4146   -1.1185    0.3812 C.ar    1  LIG1       -0.0410
      4 C          -3.1343    0.0887    0.3913 C.ar    1  LIG1        0.0508
      5 C          -4.4808    0.0453   -0.0017 C.ar    1  LIG1        0.0917
      6 N          -5.0720   -1.1068   -0.3369 N.ar    1  LIG1       -0.2311
      7 H          -1.3750   -1.1047    0.6804 H       1  LIG1        0.0631
      8 H          -2.4842   -3.2337    0.0026 H       1  LIG1        0.0652
      9 N          -5.0820   -3.3772   -0.6644 N.pl3   1  LIG1       -0.3431
     10 H          -5.9658   -3.2291   -1.1274 H       1  LIG1        0.1437
     11 H          -4.5696   -4.2035   -0.9255 H       1  LIG1        0.1437
     12 C          -2.4727    1.2843    0.8476 C.1     1  LIG1       -0.0675
     13 C          -1.8720    2.2480    1.2438 C.1     1  LIG1       -0.1138
     14 H          -1.3524    3.1086    1.5970 H       1  LIG1        0.1232
     15 C          -6.7034    1.2603    0.3065 C.ar    1  LIG1        0.1262
     16 C          -5.3271    1.2686   -0.0706 C.ar    1  LIG1        0.0423
     17 C          -4.8149    2.4640   -0.5344 C.ar    1  LIG1       -0.0317
     18 C          -5.5999    3.6245   -0.5713 C.ar    1  LIG1        0.0515
     19 C          -6.9151    3.5308   -0.0907 C.ar    1  LIG1        0.0918
     20 N          -7.4379    2.3773    0.3087 N.ar    1  LIG1       -0.2304
     21 H          -3.7937    2.5146   -0.8882 H       1  LIG1        0.0638
     22 N          -7.3297    0.1383    0.7180 N.pl3   1  LIG1       -0.3426
     23 H          -8.3129    0.2252    0.9183 H       1  LIG1        0.1437
     24 H          -6.9196   -0.7529    0.4809 H       1  LIG1        0.1437
     25 C          -5.0638    4.8354   -1.1354 C.1     1  LIG1       -0.0675
     26 C          -4.5953    5.8418   -1.5986 C.1     1  LIG1       -0.1138
     27 H          -4.1923    6.7340   -2.0186 H       1  LIG1        0.1232
     28 C          -7.5727    5.9291    0.5743 C.ar    1  LIG1        0.1262
     29 C          -7.8522    4.6922   -0.0635 C.ar    1  LIG1        0.0423
     30 C          -9.1042    4.5390   -0.6238 C.ar    1  LIG1       -0.0317
     31 C         -10.0392    5.5805   -0.5992 C.ar    1  LIG1        0.0515
     32 C          -9.6660    6.7667    0.0539 C.ar    1  LIG1        0.0918
     33 N          -8.4687    6.9205    0.6072 N.ar    1  LIG1       -0.2304
     34 H          -9.3569    3.5998   -1.0987 H       1  LIG1        0.0638
     35 N          -6.4189    6.1617    1.2502 N.pl3   1  LIG1       -0.3426
     36 H          -5.5963    5.6199    1.0428 H       1  LIG1        0.1437
     37 H          -6.2927    7.1108    1.5663 H       1  LIG1        0.1437
     38 C         -11.3059    5.4327   -1.2677 C.1     1  LIG1       -0.0675
     39 C         -12.3633    5.2882   -1.8226 C.1     1  LIG1       -0.1138
     40 H         -13.2987    5.1728   -2.3191 H       1  LIG1        0.1232
     41 C         -11.8653    7.9209    0.6856 C.ar    1  LIG1        0.1255
     42 C         -10.5650    7.9572    0.1217 C.ar    1  LIG1        0.0423
     43 C         -10.0869    9.1770   -0.3191 C.ar    1  LIG1       -0.0324
     44 C         -10.8948   10.3170   -0.2563 C.ar    1  LIG1        0.0435
     45 C         -12.1746   10.1592    0.2780 C.ar    1  LIG1        0.0451
     46 N         -12.6413    9.0091    0.7381 N.ar    1  LIG1       -0.2388
     47 H          -9.0809    9.2401   -0.7131 H       1  LIG1        0.0638
     48 H         -12.8417   11.0113    0.3370 H       1  LIG1        0.0843
     49 N         -12.3788    6.8020    1.2687 N.pl3   1  LIG1       -0.3426
     50 H         -13.3601    6.8573    1.4933 H       1  LIG1        0.1437
     51 H         -12.0136    5.8989    1.0138 H       1  LIG1        0.1437
     52 C         -10.4416   11.6010   -0.7234 C.1     1  LIG1       -0.0681
     53 C         -10.0676   12.6745   -1.1145 C.1     1  LIG1       -0.1139
     54 H          -9.7352   13.6246   -1.4617 H       1  LIG1        0.1232
@<TRIPOS>BOND
     1    40    39    1
     2    27    26    1
     3    39    38    3
     4    26    25    3
     5    54    53    1
     6    38    31    1
     7    25    18    1
     8    10     9    1
     9    53    52    3
    10    34    30    1
    11    11     9    1
    12    21    17    1
    13    52    44    1
    14    47    43    1
    15     9     1    1
    16    30    31   ar
    17    30    29   ar
    18    31    32   ar
    19    18    17   ar
    20    18    19   ar
    21    17    16   ar
    22     1     6   ar
    23     1     2   ar
    24     6     5   ar
    25    43    44   ar
    26    43    42   ar
    27    44    45   ar
    28    19    29    1
    29    19    20   ar
    30    16     5    1
    31    16    15   ar
    32    29    28   ar
    33     5     4   ar
    34     8     2    1
    35     2     3   ar
    36    32    42    1
    37    32    33   ar
    38    42    41   ar
    39    45    48    1
    40    45    46   ar
    41    15    20   ar
    42    15    22    1
    43     3     4   ar
    44     3     7    1
    45     4    12    1
    46    24    22    1
    47    28    33   ar
    48    28    35    1
    49    41    46   ar
    50    41    49    1
    51    22    23    1
    52    12    13    3
    53    51    49    1
    54    36    35    1
    55    13    14    1
    56    35    37    1
    57    49    50    1
