@<TRIPOS>MOLECULE
mol_data/opt/m06hf/geoms/mol2/6he6he-.out
 28 29 0 0 0
SMALL
GASTEIGER

@<TRIPOS>ATOM
      1 C          -4.4421   -2.0219   -0.5843 C.ar    1  LIG1        0.1169
      2 C          -3.1186   -2.1079   -0.0977 C.ar    1  LIG1       -0.0209
      3 C          -2.5368   -0.9592    0.3822 C.ar    1  LIG1       -0.0410
      4 C          -3.2475    0.2535    0.3691 C.ar    1  LIG1        0.0508
      5 C          -4.5419    0.2434   -0.1707 C.ar    1  LIG1        0.0917
      6 N          -5.1147   -0.8736   -0.6186 N.ar    1  LIG1       -0.2311
      7 H          -1.5346   -0.9754    0.7899 H       1  LIG1        0.0631
      8 H          -2.5968   -3.0545   -0.0885 H       1  LIG1        0.0652
      9 N          -5.1102   -3.1252   -1.0246 N.pl3   1  LIG1       -0.3431
     10 H          -5.9843   -2.9564   -1.4972 H       1  LIG1        0.1437
     11 H          -4.6075   -3.9680   -1.2435 H       1  LIG1        0.1437
     12 C          -2.6611    1.4379    0.9408 C.1     1  LIG1       -0.0675
     13 C          -2.1488    2.4184    1.4132 C.1     1  LIG1       -0.1138
     14 H          -1.7106    3.2900    1.8418 H       1  LIG1        0.1232
     15 C          -5.0166    2.6681   -0.8655 C.ar    1  LIG1        0.1255
     16 C          -5.4003    1.4640   -0.2249 C.ar    1  LIG1        0.0423
     17 C          -6.6762    1.3934    0.3060 C.ar    1  LIG1       -0.0324
     18 C          -7.5245    2.5027    0.2552 C.ar    1  LIG1        0.0435
     19 C          -7.0303    3.6523   -0.3643 C.ar    1  LIG1        0.0451
     20 N          -5.8271    3.7314   -0.9099 N.ar    1  LIG1       -0.2388
     21 H          -7.0097    0.4691    0.7594 H       1  LIG1        0.0638
     22 H          -7.6478    4.5407   -0.4205 H       1  LIG1        0.0843
     23 N          -3.8370    2.8006   -1.5379 N.pl3   1  LIG1       -0.3426
     24 H          -3.0566    2.2192   -1.2783 H       1  LIG1        0.1437
     25 H          -3.6252    3.7462   -1.8176 H       1  LIG1        0.1437
     26 C          -8.8504    2.4753    0.8156 C.1     1  LIG1       -0.0681
     27 C          -9.9586    2.4564    1.2824 C.1     1  LIG1       -0.1139
     28 H         -10.9406    2.4404    1.6953 H       1  LIG1        0.1232
@<TRIPOS>BOND
     1    25    23    1
     2    23    24    1
     3    23    15    1
     4    10     9    1
     5    11     9    1
     6     9     1    1
     7    20    15   ar
     8    20    19   ar
     9    15    16   ar
    10     6     1   ar
    11     6     5   ar
    12     1     2   ar
    13    22    19    1
    14    19    18   ar
    15    16     5    1
    16    16    17   ar
    17     5     4   ar
    18     2     8    1
    19     2     3   ar
    20    18    17   ar
    21    18    26    1
    22    17    21    1
    23     4     3   ar
    24     4    12    1
    25     3     7    1
    26    26    27    3
    27    12    13    3
    28    27    28    1
    29    13    14    1
