@<TRIPOS>MOLECULE
mol_data/opt/m06hf/geoms/mol2/6he6he6he.out
 41 43 0 0 0
SMALL
GASTEIGER

@<TRIPOS>ATOM
      1 C          -4.2654   -1.9844   -1.0845 C.ar    1  LIG1        0.1169
      2 C          -3.0019   -2.1417   -0.4806 C.ar    1  LIG1       -0.0209
      3 C          -2.5397   -1.1152    0.3079 C.ar    1  LIG1       -0.0410
      4 C          -3.2991    0.0547    0.4823 C.ar    1  LIG1        0.0508
      5 C          -4.5283    0.1359   -0.1884 C.ar    1  LIG1        0.0917
      6 N          -4.9865   -0.8778   -0.9324 N.ar    1  LIG1       -0.2311
      7 H          -1.5863   -1.1944    0.8135 H       1  LIG1        0.0631
      8 H          -2.4326   -3.0495   -0.6228 H       1  LIG1        0.0652
      9 N          -4.8277   -2.9820   -1.8342 N.pl3   1  LIG1       -0.3431
     10 H          -5.6039   -2.7070   -2.4166 H       1  LIG1        0.1437
     11 H          -4.2343   -3.7139   -2.1887 H       1  LIG1        0.1437
     12 C          -2.8041    1.0791    1.3656 C.1     1  LIG1       -0.0675
     13 C          -2.3530    1.9023    2.1167 C.1     1  LIG1       -0.1138
     14 H          -1.9704    2.6412    2.7821 H       1  LIG1        0.1232
     15 C          -6.8094    1.2590   -0.0309 C.ar    1  LIG1        0.1262
     16 C          -5.3927    1.3473   -0.1203 C.ar    1  LIG1        0.0423
     17 C          -4.8499    2.6172   -0.1477 C.ar    1  LIG1       -0.0317
     18 C          -5.6534    3.7615   -0.0632 C.ar    1  LIG1        0.0515
     19 C          -7.0413    3.5732    0.0391 C.ar    1  LIG1        0.0918
     20 N          -7.5724    2.3497    0.0623 N.ar    1  LIG1       -0.2304
     21 H          -3.7791    2.7448   -0.2282 H       1  LIG1        0.0638
     22 N          -7.4580    0.0672    0.0004 N.pl3   1  LIG1       -0.3426
     23 H          -8.4594    0.1181   -0.1040 H       1  LIG1        0.1437
     24 H          -6.9659   -0.7261   -0.3863 H       1  LIG1        0.1437
     25 C          -5.0149    5.0523   -0.0267 C.1     1  LIG1       -0.0675
     26 C          -4.4344    6.1047    0.0088 C.1     1  LIG1       -0.1138
     27 H          -3.9333    7.0440    0.0448 H       1  LIG1        0.1232
     28 C          -9.1396    4.6760    0.9663 C.ar    1  LIG1        0.1255
     29 C          -7.9956    4.7144    0.1176 C.ar    1  LIG1        0.0423
     30 C          -7.8078    5.8518   -0.6491 C.ar    1  LIG1       -0.0324
     31 C          -8.6935    6.9295   -0.5498 C.ar    1  LIG1        0.0435
     32 C          -9.7533    6.8022    0.3500 C.ar    1  LIG1        0.0451
     33 N          -9.9737    5.7181    1.0751 N.ar    1  LIG1       -0.2388
     34 H          -6.9708    5.9134   -1.3313 H       1  LIG1        0.0638
     35 H         -10.4556    7.6184    0.4728 H       1  LIG1        0.0843
     36 N          -9.4276    3.6004    1.7380 N.pl3   1  LIG1       -0.3426
     37 H         -10.3080    3.6415    2.2261 H       1  LIG1        0.1437
     38 H          -9.0397    2.7103    1.4614 H       1  LIG1        0.1437
     39 C          -8.5264    8.1251   -1.3331 C.1     1  LIG1       -0.0681
     40 C          -8.3921    9.1262   -1.9852 C.1     1  LIG1       -0.1139
     41 H          -8.2746   10.0129   -2.5630 H       1  LIG1        0.1232
@<TRIPOS>BOND
     1    41    40    1
     2    10     9    1
     3    11     9    1
     4    40    39    3
     5     9     1    1
     6    39    31    1
     7    34    30    1
     8     1     6   ar
     9     1     2   ar
    10     6     5   ar
    11    30    31   ar
    12    30    29   ar
    13     8     2    1
    14    31    32   ar
    15     2     3   ar
    16    24    22    1
    17    21    17    1
    18     5    16    1
    19     5     4   ar
    20    17    16   ar
    21    17    18   ar
    22    16    15   ar
    23    23    22    1
    24    18    25    1
    25    18    19   ar
    26    15    22    1
    27    15    20   ar
    28    25    26    3
    29    26    27    1
    30    19    20   ar
    31    19    29    1
    32    29    28   ar
    33     3     4   ar
    34     3     7    1
    35    32    35    1
    36    32    33   ar
    37     4    12    1
    38    28    33   ar
    39    28    36    1
    40    12    13    3
    41    38    36    1
    42    36    37    1
    43    13    14    1
