@<TRIPOS>MOLECULE
mol_data/opt/m06hf/geoms/mol2/6he6he.out
 28 29 0 0 0
SMALL
GASTEIGER

@<TRIPOS>ATOM
      1 C          -4.4585   -2.0352   -0.5913 C.ar    1  LIG1        0.1169
      2 C          -3.0761   -2.0766   -0.3240 C.ar    1  LIG1       -0.0209
      3 C          -2.4771   -0.9181    0.1117 C.ar    1  LIG1       -0.0410
      4 C          -3.2223    0.2630    0.2632 C.ar    1  LIG1        0.0508
      5 C          -4.5872    0.2174   -0.0621 C.ar    1  LIG1        0.0917
      6 N          -5.1694   -0.9194   -0.4597 N.ar    1  LIG1       -0.2311
      7 H          -1.4228   -0.9012    0.3548 H       1  LIG1        0.0631
      8 H          -2.5183   -2.9948   -0.4417 H       1  LIG1        0.0652
      9 N          -5.1480   -3.1560   -0.9715 N.pl3   1  LIG1       -0.3431
     10 H          -6.0599   -2.9907   -1.3694 H       1  LIG1        0.1437
     11 H          -4.6315   -3.9370   -1.3411 H       1  LIG1        0.1437
     12 C          -2.5662    1.4340    0.7865 C.1     1  LIG1       -0.0675
     13 C          -1.9746    2.3807    1.2338 C.1     1  LIG1       -0.1138
     14 H          -1.4675    3.2293    1.6322 H       1  LIG1        0.1232
     15 C          -6.8046    1.3508    0.4720 C.ar    1  LIG1        0.1255
     16 C          -5.4609    1.4224    0.0062 C.ar    1  LIG1        0.0423
     17 C          -4.9930    2.6592   -0.4051 C.ar    1  LIG1       -0.0324
     18 C          -5.8079    3.7919   -0.3184 C.ar    1  LIG1        0.0435
     19 C          -7.0935    3.6135    0.1966 C.ar    1  LIG1        0.0451
     20 N          -7.5766    2.4409    0.5718 N.ar    1  LIG1       -0.2388
     21 H          -3.9899    2.7558   -0.7980 H       1  LIG1        0.0638
     22 H          -7.7561    4.4651    0.2954 H       1  LIG1        0.0843
     23 N          -7.3679    0.1866    0.8757 N.pl3   1  LIG1       -0.3426
     24 H          -8.3496    0.2357    1.0956 H       1  LIG1        0.1437
     25 H          -6.9644   -0.6727    0.5340 H       1  LIG1        0.1437
     26 C          -5.3515    5.0904   -0.7395 C.1     1  LIG1       -0.0681
     27 C          -4.9744    6.1761   -1.0926 C.1     1  LIG1       -0.1139
     28 H          -4.6442    7.1381   -1.4082 H       1  LIG1        0.1232
@<TRIPOS>BOND
     1    28    27    1
     2    10     9    1
     3    11     9    1
     4    27    26    3
     5     9     1    1
     6    21    17    1
     7    26    18    1
     8     1     6   ar
     9     1     2   ar
    10     6     5   ar
    11     8     2    1
    12    17    18   ar
    13    17    16   ar
    14     2     3   ar
    15    18    19   ar
    16     5    16    1
    17     5     4   ar
    18    16    15   ar
    19     3     4   ar
    20     3     7    1
    21    19    22    1
    22    19    20   ar
    23     4    12    1
    24    15    20   ar
    25    15    23    1
    26    25    23    1
    27    12    13    3
    28    23    24    1
    29    13    14    1
