@<TRIPOS>MOLECULE
mol_data/opt/m06hf/geoms/mol2/6he6al-12he-6hf.out
 51 54 0 0 0
SMALL
GASTEIGER

@<TRIPOS>ATOM
      1 C          -4.3267   -2.0536    0.7471 C.ar    1  LIG1        0.1169
      2 C          -3.0716   -2.2424    0.1281 C.ar    1  LIG1       -0.0209
      3 C          -2.5398   -1.1858   -0.5698 C.ar    1  LIG1       -0.0410
      4 C          -3.2221    0.0423   -0.6409 C.ar    1  LIG1        0.0508
      5 C          -4.4468    0.1400    0.0360 C.ar    1  LIG1        0.0900
      6 N          -4.9742   -0.8937    0.6935 N.ar    1  LIG1       -0.2312
      7 H          -1.5913   -1.2843   -1.0810 H       1  LIG1        0.0631
      8 H          -2.5571   -3.1901    0.2032 H       1  LIG1        0.0652
      9 N          -4.9208   -3.0494    1.4629 N.pl3   1  LIG1       -0.3431
     10 H          -5.8691   -2.8842    1.7606 H       1  LIG1        0.1437
     11 H          -4.6166   -4.0009    1.3489 H       1  LIG1        0.1437
     12 C          -2.6530    1.0965   -1.4416 C.1     1  LIG1       -0.0675
     13 C          -2.1279    1.9293   -2.1337 C.1     1  LIG1       -0.1138
     14 H          -1.6711    2.6580   -2.7628 H       1  LIG1        0.1232
     15 C          -6.6614    1.2713    0.1119 C.ar    1  LIG1        0.0378
     16 C          -5.2725    1.3809    0.0615 C.ar    1  LIG1        0.0232
     17 C          -4.7164    2.6601    0.0644 C.ar    1  LIG1       -0.0070
     18 C          -5.5600    3.7597    0.1049 C.ar    1  LIG1        0.1497
     19 C          -6.9505    3.5521    0.1829 C.ar    1  LIG1        0.1493
     20 N          -7.4685    2.3224    0.1695 N.ar    1  LIG1       -0.2475
     21 H          -3.6438    2.7805    0.0271 H       1  LIG1        0.0662
     22 H          -7.1212    0.2922    0.1129 H       1  LIG1        0.0836
     23 O          -5.1170    5.0460    0.0463 O.3     1  LIG1       -0.4928
     24 C          -3.7443    5.2540   -0.2489 C.3     1  LIG1        0.0789
     25 H          -3.6287    6.3264   -0.3829 H       1  LIG1        0.0660
     26 H          -3.1151    4.9133    0.5759 H       1  LIG1        0.0660
     27 H          -3.4748    4.7294   -1.1683 H       1  LIG1        0.0660
     28 C          -7.9157    4.6496    0.2577 C.ar    1  LIG1        0.1791
     29 C          -7.9456    5.9224    0.7652 C.ar    1  LIG1        0.0889
     30 C          -9.3089    6.3782    0.6007 C.ar    1  LIG1        0.0918
     31 C         -10.0002    5.3454    0.0183 C.ar    1  LIG1        0.1563
     32 O          -9.1666    4.3248   -0.1878 O.2     1  LIG1       -0.4499
     33 N          -6.9801    6.6538    1.4183 N.pl3   1  LIG1       -0.3540
     34 H          -6.0333    6.4169    1.1559 H       1  LIG1        0.1425
     35 H          -7.1830    7.6426    1.4687 H       1  LIG1        0.1425
     36 C          -9.7771    7.6599    1.0239 C.1     1  LIG1       -0.0640
     37 C         -10.1209    8.7536    1.3900 C.1     1  LIG1       -0.1137
     38 H         -10.4440    9.7131    1.7225 H       1  LIG1        0.1232
     39 C         -11.9719    3.8832   -0.5739 C.ar    1  LIG1        0.1271
     40 C         -11.3935    5.1735   -0.3943 C.ar    1  LIG1        0.0615
     41 C         -12.1900    6.2926   -0.6080 C.ar    1  LIG1       -0.0047
     42 C         -13.5164    6.1353   -0.9828 C.ar    1  LIG1        0.1357
     43 C         -13.9918    4.8402   -1.1407 C.ar    1  LIG1        0.0711
     44 N         -13.2481    3.7590   -0.9452 N.ar    1  LIG1       -0.2364
     45 H         -11.7862    7.2898   -0.4878 H       1  LIG1        0.0663
     46 H         -15.0213    4.6664   -1.4427 H       1  LIG1        0.0867
     47 N         -11.3037    2.7190   -0.3558 N.pl3   1  LIG1       -0.3426
     48 H         -11.8108    1.8814   -0.5876 H       1  LIG1        0.1437
     49 H         -10.3025    2.6851   -0.2401 H       1  LIG1        0.1437
     50 O         -14.2808    7.2513   -1.1936 O.3     1  LIG1       -0.5052
     51 H         -15.1843    6.9972   -1.4080 H       1  LIG1        0.2922
@<TRIPOS>BOND
     1    14    13    1
     2    13    12    3
     3    46    43    1
     4    12     4    1
     5    51    50    1
     6    50    42    1
     7    27    24    1
     8    43    42   ar
     9    43    44   ar
    10     7     3    1
    11    42    41   ar
    12    44    39   ar
    13     4     3   ar
    14     4     5   ar
    15    41    45    1
    16    41    40   ar
    17    48    47    1
    18    39    40   ar
    19    39    47    1
    20     3     2   ar
    21    40    31    1
    22    25    24    1
    23    47    49    1
    24    24    23    1
    25    24    26    1
    26    32    31   ar
    27    32    28   ar
    28    31    30   ar
    29    21    17    1
    30     5    16    1
    31     5     6   ar
    32    23    18    1
    33    16    17   ar
    34    16    15   ar
    35    17    18   ar
    36    18    19   ar
    37    15    22    1
    38    15    20   ar
    39     2     8    1
    40     2     1   ar
    41    20    19   ar
    42    19    28    1
    43    28    29   ar
    44    30    29   ar
    45    30    36    1
    46     6     1   ar
    47     1     9    1
    48    29    33    1
    49    36    37    3
    50    34    33    1
    51    11     9    1
    52    37    38    1
    53    33    35    1
    54     9    10    1
