@<TRIPOS>MOLECULE
mol_data/opt/m06hf/geoms/mol2/6he6he-6he.out
 41 43 0 0 0
SMALL
GASTEIGER

@<TRIPOS>ATOM
      1 C          -4.4701   -2.1073    0.4716 C.ar    1  LIG1        0.1169
      2 C          -3.0977   -2.2089    0.1480 C.ar    1  LIG1       -0.0209
      3 C          -2.4458   -1.0668   -0.2478 C.ar    1  LIG1       -0.0410
      4 C          -3.1341    0.1586   -0.3039 C.ar    1  LIG1        0.0508
      5 C          -4.4833    0.1625    0.0754 C.ar    1  LIG1        0.0917
      6 N          -5.1263   -0.9492    0.4331 N.ar    1  LIG1       -0.2311
      7 H          -1.4021   -1.0944   -0.5313 H       1  LIG1        0.0631
      8 H          -2.5885   -3.1608    0.2071 H       1  LIG1        0.0652
      9 N          -5.1849   -3.1943    0.8687 N.pl3   1  LIG1       -0.3431
     10 H          -6.1774   -3.0689    0.9862 H       1  LIG1        0.1437
     11 H          -4.8294   -4.1235    0.7259 H       1  LIG1        0.1437
     12 C          -2.4662    1.3392   -0.7867 C.1     1  LIG1       -0.0675
     13 C          -1.8849    2.3140   -1.1844 C.1     1  LIG1       -0.1138
     14 H          -1.3814    3.1799   -1.5477 H       1  LIG1        0.1232
     15 C          -5.0051    2.5858    0.7543 C.ar    1  LIG1        0.1262
     16 C          -5.3208    1.3980    0.0436 C.ar    1  LIG1        0.0423
     17 C          -6.5111    1.3753   -0.6530 C.ar    1  LIG1       -0.0317
     18 C          -7.3491    2.4972   -0.6868 C.ar    1  LIG1        0.0515
     19 C          -6.9459    3.6256    0.0454 C.ar    1  LIG1        0.0918
     20 N          -5.8075    3.6536    0.7290 N.ar    1  LIG1       -0.2304
     21 H          -6.7927    0.4785   -1.1896 H       1  LIG1        0.0638
     22 N          -3.9154    2.6914    1.5561 N.pl3   1  LIG1       -0.3426
     23 H          -3.1304    2.0749    1.4282 H       1  LIG1        0.1437
     24 H          -3.7422    3.6120    1.9285 H       1  LIG1        0.1437
     25 C          -8.5463    2.4841   -1.4864 C.1     1  LIG1       -0.0675
     26 C          -9.5491    2.4534   -2.1497 C.1     1  LIG1       -0.1138
     27 H         -10.4335    2.4421   -2.7433 H       1  LIG1        0.1232
     28 C          -9.0861    4.9653    0.4902 C.ar    1  LIG1        0.1255
     29 C          -7.7361    4.8927    0.0627 C.ar    1  LIG1        0.0423
     30 C          -7.1034    6.0733   -0.2789 C.ar    1  LIG1       -0.0324
     31 C          -7.8037    7.2836   -0.2532 C.ar    1  LIG1        0.0435
     32 C          -9.1399    7.2352    0.1469 C.ar    1  LIG1        0.0451
     33 N          -9.7572    6.1221    0.5113 N.ar    1  LIG1       -0.2388
     34 H          -6.0607    6.0514   -0.5677 H       1  LIG1        0.0638
     35 H          -9.7265    8.1461    0.1752 H       1  LIG1        0.0843
     36 N          -9.7603    3.8824    0.9694 N.pl3   1  LIG1       -0.3426
     37 H         -10.7500    4.0275    1.0969 H       1  LIG1        0.1437
     38 H          -9.4628    2.9583    0.7016 H       1  LIG1        0.1437
     39 C          -7.1845    8.5285   -0.6267 C.1     1  LIG1       -0.0681
     40 C          -6.6662    9.5675   -0.9392 C.1     1  LIG1       -0.1139
     41 H          -6.2049   10.4871   -1.2150 H       1  LIG1        0.1232
@<TRIPOS>BOND
     1    27    26    1
     2    26    25    3
     3    14    13    1
     4    25    18    1
     5    41    40    1
     6    21    17    1
     7    13    12    3
     8    40    39    3
     9    12     4    1
    10    18    17   ar
    11    18    19   ar
    12    17    16   ar
    13    39    31    1
    14    34    30    1
    15     7     3    1
    16     4     3   ar
    17     4     5   ar
    18    30    31   ar
    19    30    29   ar
    20    31    32   ar
    21     3     2   ar
    22    16     5    1
    23    16    15   ar
    24    19    29    1
    25    19    20   ar
    26    29    28   ar
    27     5     6   ar
    28    32    35    1
    29    32    33   ar
    30     2     8    1
    31     2     1   ar
    32     6     1   ar
    33     1     9    1
    34    28    33   ar
    35    28    36    1
    36    38    36    1
    37    11     9    1
    38    20    15   ar
    39    15    22    1
    40     9    10    1
    41    36    37    1
    42    23    22    1
    43    22    24    1
