@<TRIPOS>MOLECULE
mol_data/opt/m06hf/geoms/mol2/6hf12al-12ad-4eh.out
 47 50 0 0 0
SMALL
GASTEIGER

@<TRIPOS>ATOM
      1 C          -4.0042   -1.9869    1.0525 C.ar    1  LIG1        0.1172
      2 C          -2.6743   -1.9728    0.5803 C.ar    1  LIG1       -0.0186
      3 C          -2.2249   -0.8561   -0.0897 C.ar    1  LIG1       -0.0147
      4 C          -3.0803    0.2354   -0.2557 C.ar    1  LIG1        0.1459
      5 C          -4.3617    0.1415    0.2779 C.ar    1  LIG1        0.1494
      6 N          -4.8142   -0.9535    0.8958 N.ar    1  LIG1       -0.2257
      7 H          -1.2239   -0.7963   -0.4959 H       1  LIG1        0.0656
      8 H          -2.0298   -2.8254    0.7453 H       1  LIG1        0.0653
      9 N          -4.4993   -3.0721    1.7540 N.pl3   1  LIG1       -0.3431
     10 H          -5.5018   -3.0467    1.8773 H       1  LIG1        0.1437
     11 H          -4.1247   -3.9776    1.5173 H       1  LIG1        0.1437
     12 O          -2.6248    1.3343   -0.9264 O.3     1  LIG1       -0.5045
     13 H          -3.3751    1.8017   -1.3177 H       1  LIG1        0.2922
     14 C          -5.2987    1.2743    0.1491 C.ar    1  LIG1        0.1612
     15 C          -5.0955    2.6295    0.1237 C.ar    1  LIG1        0.0284
     16 C          -6.4038    3.2054    0.0066 C.ar    1  LIG1        0.1694
     17 C          -7.2810    2.1603   -0.0342 C.ar    1  LIG1        0.2120
     18 O          -6.6062    0.9944    0.0512 O.2     1  LIG1       -0.4462
     19 H          -4.1498    3.1309    0.2485 H       1  LIG1        0.0693
     20 O          -6.7828    4.4989   -0.0564 O.3     1  LIG1       -0.4912
     21 C          -5.7387    5.4552    0.0417 C.3     1  LIG1        0.0790
     22 H          -6.2153    6.4289   -0.0225 H       1  LIG1        0.0660
     23 H          -5.2216    5.3556    0.9985 H       1  LIG1        0.0660
     24 H          -5.0326    5.3321   -0.7829 H       1  LIG1        0.0660
     25 C          -8.7228    2.1484   -0.1653 C.ar    1  LIG1        0.1755
     26 C          -9.6278    3.1532   -0.2931 C.ar    1  LIG1        0.0054
     27 C         -10.9035    2.4979   -0.3838 C.ar    1  LIG1        0.0981
     28 C         -10.6708    1.1516   -0.2968 C.ar    1  LIG1        0.1543
     29 O          -9.3452    0.9496   -0.1704 O.2     1  LIG1       -0.4502
     30 H          -9.4239    4.2083   -0.3295 H       1  LIG1        0.0670
     31 N         -13.1261    3.7197   -0.8630 N.1     1  LIG1       -0.1907
     32 C         -12.1554    3.1518   -0.6355 C.1     1  LIG1        0.1030
     33 C         -12.7512   -0.1543    0.2569 C.ar    1  LIG1        0.0355
     34 C         -13.4879   -1.3340    0.0959 C.ar    1  LIG1       -0.0439
     35 C         -11.5106   -0.0549   -0.3909 C.ar    1  LIG1        0.0356
     36 C         -13.0087   -2.3841   -0.6660 C.ar    1  LIG1       -0.0399
     37 H         -14.4454   -1.4160    0.5918 H       1  LIG1        0.0630
     38 C         -11.0177   -1.1181   -1.1444 C.ar    1  LIG1       -0.0292
     39 C         -11.7584   -2.2924   -1.2962 C.ar    1  LIG1        0.0253
     40 H         -10.0482   -1.0228   -1.6173 H       1  LIG1        0.0643
     41 H         -13.5936   -3.2897   -0.7695 H       1  LIG1        0.0636
     42 C         -13.2604    0.8856    1.1132 C.1     1  LIG1       -0.0690
     43 C         -13.7084    1.7346    1.8365 C.1     1  LIG1       -0.1139
     44 H         -14.1006    2.5092    2.4535 H       1  LIG1        0.1232
     45 N         -11.2514   -3.3614   -2.0215 N.pl3   1  LIG1       -0.3579
     46 H         -11.9320   -4.0152   -2.3790 H       1  LIG1        0.1423
     47 H         -10.5256   -3.1387   -2.6864 H       1  LIG1        0.1423
@<TRIPOS>BOND
     1    47    45    1
     2    46    45    1
     3    45    39    1
     4    40    38    1
     5    13    12    1
     6    39    38   ar
     7    39    36   ar
     8    38    35   ar
     9    12     4    1
    10    31    32    3
    11    24    21    1
    12    41    36    1
    13    36    34   ar
    14    32    27    1
    15     7     3    1
    16    35    28    1
    17    35    33   ar
    18    27    28   ar
    19    27    26   ar
    20    30    26    1
    21    28    29   ar
    22    26    25   ar
    23     4     3   ar
    24     4     5   ar
    25    29    25   ar
    26    25    17    1
    27     3     2   ar
    28    20    16    1
    29    20    21    1
    30    17    16   ar
    31    17    18   ar
    32    22    21    1
    33    16    15   ar
    34    21    23    1
    35    18    14   ar
    36    34    33   ar
    37    34    37    1
    38    15    14   ar
    39    15    19    1
    40    14     5    1
    41    33    42    1
    42     5     6   ar
    43     2     8    1
    44     2     1   ar
    45     6     1   ar
    46     1     9    1
    47    42    43    3
    48    11     9    1
    49     9    10    1
    50    43    44    1
