@<TRIPOS>MOLECULE
mol_data/opt/m06hf/geoms/mol2/6hf12ie-13hh6li-12hh-12ia-4fa-13ea-.out
 96 103 0 0 0
SMALL
GASTEIGER

@<TRIPOS>ATOM
      1 C          -3.6709   -0.5413   -1.2641 C.ar    1  LIG1        0.1172
      2 C          -2.5578   -0.1689   -2.0473 C.ar    1  LIG1       -0.0186
      3 C          -2.4019    1.1572   -2.3841 C.ar    1  LIG1       -0.0147
      4 C          -3.3276    2.0959   -1.9181 C.ar    1  LIG1        0.1459
      5 C          -4.3666    1.6391   -1.1138 C.ar    1  LIG1        0.1495
      6 N          -4.5430    0.3450   -0.8181 N.ar    1  LIG1       -0.2257
      7 H          -1.5844    1.4976   -3.0056 H       1  LIG1        0.0656
      8 H          -1.8481   -0.9170   -2.3730 H       1  LIG1        0.0653
      9 N          -3.8602   -1.8638   -0.8825 N.pl3   1  LIG1       -0.3431
     10 H          -4.7746   -2.0266   -0.4846 H       1  LIG1        0.1437
     11 H          -3.5707   -2.5637   -1.5494 H       1  LIG1        0.1437
     12 O          -3.1776    3.3984   -2.2836 O.3     1  LIG1       -0.5045
     13 H          -3.9924    3.8801   -2.0827 H       1  LIG1        0.2922
     14 C          -5.3598    2.5944   -0.5835 C.ar    1  LIG1        0.1616
     15 C          -5.2408    3.8089    0.0200 C.ar    1  LIG1        0.0130
     16 C          -6.5954    4.2180    0.3280 C.ar    1  LIG1        0.0754
     17 C          -7.4141    3.2153   -0.1220 C.ar    1  LIG1        0.1692
     18 O          -6.6666    2.2388   -0.6695 O.2     1  LIG1       -0.4501
     19 C          -3.9939    4.5558    0.4200 C.3     1  LIG1       -0.0349
     20 H          -4.0732    4.8294    1.4723 H       1  LIG1        0.0279
     21 H          -3.8873    5.4744   -0.1602 H       1  LIG1        0.0279
     22 H          -3.1122    3.9352    0.2712 H       1  LIG1        0.0279
     23 C          -6.9413    5.4002    1.0550 C.1     1  LIG1       -0.0655
     24 C          -7.1632    6.4009    1.6862 C.1     1  LIG1       -0.1138
     25 H          -7.3546    7.2829    2.2528 H       1  LIG1        0.1232
     26 C          -8.8451    2.9868   -0.1185 C.ar    1  LIG1        0.1065
     27 C          -9.9281    3.8572   -0.0614 C.ar    1  LIG1        0.0749
     28 C         -11.0946    3.0636   -0.1382 C.ar    1  LIG1        0.0720
     29 C         -10.6969    1.7338   -0.2422 C.ar    1  LIG1        0.0749
     30 N          -9.3310    1.7263   -0.2441 N.ar    1  LIG1       -0.3486
     31 H          -8.7796    0.8854   -0.3540 H       1  LIG1        0.1661
     32 N          -9.9773    5.2787    0.0082 N.pl3   1  LIG1       -0.3548
     33 H          -9.4944    5.6213    0.8326 H       1  LIG1        0.1424
     34 H          -9.5246    5.6964   -0.8005 H       1  LIG1        0.1424
     35 N         -12.4054    3.5873   -0.0973 N.pl3   1  LIG1       -0.3549
     36 H         -12.3270    4.5949    0.0277 H       1  LIG1        0.1424
     37 H         -12.9071    3.4009   -0.9618 H       1  LIG1        0.1424
     38 C         -10.9856   -0.7522   -0.6373 C.ar    1  LIG1        0.2245
     39 C         -11.5114    0.5164   -0.2987 C.ar    1  LIG1        0.0619
     40 C         -12.8650    0.5422    0.0149 C.ar    1  LIG1       -0.0424
     41 C         -13.6553   -0.6120   -0.0391 C.ar    1  LIG1       -0.0205
     42 C         -13.0179   -1.7833   -0.4437 C.ar    1  LIG1        0.1146
     43 N         -11.7045   -1.8422   -0.7167 N.ar    1  LIG1       -0.2089
     44 H         -13.2982    1.4824    0.3383 H       1  LIG1        0.0629
     45 O          -9.6575   -0.8387   -0.8959 O.3     1  LIG1       -0.4792
     46 C          -9.1527   -2.1267   -1.2439 C.3     1  LIG1        0.0804
     47 H          -8.0879   -1.9786   -1.4033 H       1  LIG1        0.0660
     48 H          -9.3385   -2.8327   -0.4352 H       1  LIG1        0.0660
     49 H          -9.6380   -2.4853   -2.1503 H       1  LIG1        0.0660
     50 C         -15.1101   -0.5800    0.3839 C.3     1  LIG1       -0.0376
     51 H         -15.2842   -1.3269    1.1607 H       1  LIG1        0.0278
     52 H         -15.7598   -0.8164   -0.4603 H       1  LIG1        0.0278
     53 H         -15.3528    0.4055    0.7797 H       1  LIG1        0.0278
     54 C         -13.7497   -3.0609   -0.5774 C.ar    1  LIG1        0.1767
     55 C         -14.8964   -3.3967   -1.2365 C.ar    1  LIG1        0.0943
     56 C         -15.0578   -4.8159   -1.0526 C.ar    1  LIG1        0.0958
     57 C         -14.0050   -5.2152   -0.2873 C.ar    1  LIG1        0.1933
     58 O         -13.2023   -4.1602   -0.0114 O.2     1  LIG1       -0.4463
     59 N         -15.7525   -2.5595   -1.9780 N.pl3   1  LIG1       -0.3535
     60 H         -15.3268   -2.1975   -2.8233 H       1  LIG1        0.1425
     61 H         -16.6351   -3.0143   -2.1797 H       1  LIG1        0.1425
     62 N         -16.1237   -5.5701   -1.5775 N.pl3   1  LIG1       -0.3535
     63 H         -16.1827   -5.4618   -2.5863 H       1  LIG1        0.1425
     64 H         -16.0148   -6.5552   -1.3574 H       1  LIG1        0.1425
     65 C         -13.6923   -6.5316    0.2474 C.ar    1  LIG1        0.1754
     66 C         -14.4853   -7.4573    0.8581 C.ar    1  LIG1       -0.0010
     67 C         -13.6336   -8.5910    1.0970 C.ar    1  LIG1       -0.0121
     68 C         -12.3989   -8.2542    0.6286 C.ar    1  LIG1        0.1396
     69 O         -12.4326   -7.0054    0.1057 O.2     1  LIG1       -0.4513
     70 C         -15.9283   -7.2990    1.2672 C.3     1  LIG1       -0.0360
     71 H         -16.0363   -7.5350    2.3264 H       1  LIG1        0.0279
     72 H         -16.5728   -7.9761    0.7028 H       1  LIG1        0.0279
     73 H         -16.2589   -6.2736    1.0985 H       1  LIG1        0.0279
     74 H         -13.8962   -9.5204    1.5689 H       1  LIG1        0.0658
     75 C         -10.9428  -10.2600    0.9886 C.ar    1  LIG1        0.1281
     76 C          -9.7004  -10.8801    0.9379 C.ar    1  LIG1       -0.0103
     77 C         -11.0959   -8.9273    0.5824 C.ar    1  LIG1        0.0587
     78 C          -8.5861  -10.1870    0.4661 C.ar    1  LIG1        0.0030
     79 H          -9.5922  -11.9077    1.2649 H       1  LIG1        0.0661
     80 C          -9.9711   -8.2444    0.1133 C.ar    1  LIG1       -0.0469
     81 C          -8.7300   -8.8610    0.0470 C.ar    1  LIG1       -0.0517
     82 H         -10.0919   -7.2200   -0.2122 H       1  LIG1        0.0626
     83 O         -12.0438  -10.9173    1.4431 O.3     1  LIG1       -0.5060
     84 H         -11.8216  -11.8276    1.6659 H       1  LIG1        0.2922
     85 H          -7.8851   -8.3240   -0.3646 H       1  LIG1        0.0624
     86 C          -7.2736  -10.8552    0.4245 C.ar    1  LIG1        0.0622
     87 C          -6.9243  -12.1757    0.1820 C.ar    1  LIG1        0.0499
     88 C          -5.5003  -12.2608    0.2524 C.ar    1  LIG1       -0.0284
     89 C          -5.0363  -11.0043    0.5367 C.ar    1  LIG1        0.0034
     90 N          -6.1144  -10.1693    0.6315 N.ar    1  LIG1       -0.3597
     91 H          -6.0814   -9.2017    0.9106 H       1  LIG1        0.1654
     92 H          -4.0342  -10.6418    0.6849 H       1  LIG1        0.0807
     93 C          -7.8222  -13.2513   -0.1214 C.1     1  LIG1       -0.0675
     94 C          -8.5596  -14.1681   -0.3720 C.1     1  LIG1       -0.1138
     95 H          -9.2057  -14.9808   -0.6088 H       1  LIG1        0.1232
     96 H          -4.9128  -13.1495    0.1008 H       1  LIG1        0.0645
@<TRIPOS>BOND
     1     7     3    1
     2    60    59    1
     3    63    62    1
     4     3     2   ar
     5     3     4   ar
     6     8     2    1
     7    12    13    1
     8    12     4    1
     9    61    59    1
    10    49    46    1
    11     2     1   ar
    12    59    55    1
    13     4     5   ar
    14    62    64    1
    15    62    56    1
    16    11     9    1
    17    47    46    1
    18     1     9    1
    19     1     6   ar
    20    46    45    1
    21    46    48    1
    22    55    56   ar
    23    55    54   ar
    24     5     6   ar
    25     5    14    1
    26    56    57   ar
    27    37    35    1
    28    45    38    1
    29     9    10    1
    30    34    32    1
    31    43    38   ar
    32    43    42   ar
    33    18    14   ar
    34    18    17   ar
    35    38    39   ar
    36    95    94    1
    37    14    15   ar
    38    54    42    1
    39    54    58   ar
    40    52    50    1
    41    42    41   ar
    42    94    93    3
    43    85    81    1
    44    31    30    1
    45    39    29    1
    46    39    40   ar
    47    57    58   ar
    48    57    65    1
    49    30    29   ar
    50    30    26   ar
    51    29    28   ar
    52    82    80    1
    53    21    19    1
    54    28    35    1
    55    28    27   ar
    56    17    26    1
    57    17    16   ar
    58    93    87    1
    59    26    27   ar
    60    35    36    1
    61    27    32    1
    62    41    40   ar
    63    41    50    1
    64    32    33    1
    65    40    44    1
    66    15    16   ar
    67    15    19    1
    68    81    80   ar
    69    81    78   ar
    70    96    88    1
    71    69    65   ar
    72    69    68   ar
    73    80    77   ar
    74    87    88   ar
    75    87    86   ar
    76    65    66   ar
    77    88    89   ar
    78    22    19    1
    79    16    23    1
    80    50    53    1
    81    50    51    1
    82    19    20    1
    83    86    78    1
    84    86    90   ar
    85    78    76   ar
    86    89    90   ar
    87    89    92    1
    88    77    68    1
    89    77    75   ar
    90    68    67   ar
    91    90    91    1
    92    72    70    1
    93    66    67   ar
    94    66    70    1
    95    76    75   ar
    96    76    79    1
    97    75    83    1
    98    23    24    3
    99    67    74    1
   100    73    70    1
   101    70    71    1
   102    83    84    1
   103    24    25    1
