@<TRIPOS>MOLECULE
mol_data/opt/m06hf/geoms/mol2/6hf12ei13ea-13ef-.out
 47 50 0 0 0
SMALL
GASTEIGER

@<TRIPOS>ATOM
      1 C          -4.4732   -1.7944   -1.4963 C.ar    1  LIG1        0.1172
      2 C          -3.2454   -2.1279   -0.8846 C.ar    1  LIG1       -0.0186
      3 C          -2.7071   -1.2428    0.0186 C.ar    1  LIG1       -0.0147
      4 C          -3.3767   -0.0498    0.3272 C.ar    1  LIG1        0.1459
      5 C          -4.5820    0.1880   -0.3303 C.ar    1  LIG1        0.1505
      6 N          -5.1040   -0.6693   -1.2217 N.ar    1  LIG1       -0.2256
      7 H          -1.7728   -1.4428    0.5259 H       1  LIG1        0.0656
      8 H          -2.7537   -3.0620   -1.1196 H       1  LIG1        0.0653
      9 N          -5.0896   -2.6663   -2.3812 N.pl3   1  LIG1       -0.3431
     10 H          -5.8400   -2.2339   -2.9021 H       1  LIG1        0.1437
     11 H          -4.4787   -3.2464   -2.9364 H       1  LIG1        0.1437
     12 O          -2.8355    0.7321    1.2976 O.3     1  LIG1       -0.5045
     13 H          -2.9532    1.6762    1.1197 H       1  LIG1        0.2922
     14 C          -5.4062    1.3888   -0.0802 C.ar    1  LIG1        0.1731
     15 C          -5.1346    2.7056    0.1762 C.ar    1  LIG1        0.0756
     16 C          -6.4007    3.3871    0.3255 C.ar    1  LIG1        0.0129
     17 C          -7.3326    2.4229    0.1063 C.ar    1  LIG1        0.1571
     18 O          -6.7374    1.2230   -0.1273 O.2     1  LIG1       -0.4501
     19 C          -3.8409    3.3112    0.2569 C.1     1  LIG1       -0.0655
     20 C          -2.7448    3.8040    0.3397 C.1     1  LIG1       -0.1138
     21 H          -1.7793    4.2531    0.3921 H       1  LIG1        0.1232
     22 C          -6.5791    4.8349    0.6913 C.3     1  LIG1       -0.0349
     23 H          -7.5621    4.9925    1.1309 H       1  LIG1        0.0279
     24 H          -6.4929    5.4648   -0.1947 H       1  LIG1        0.0279
     25 H          -5.8063    5.1195    1.4059 H       1  LIG1        0.0279
     26 C          -8.7890    2.3915    0.1154 C.ar    1  LIG1        0.0984
     27 C          -9.7552    3.3316   -0.2141 C.ar    1  LIG1        0.0536
     28 C         -11.0255    2.7145   -0.0190 C.ar    1  LIG1       -0.0188
     29 C         -10.7915    1.4267    0.4008 C.ar    1  LIG1        0.0659
     30 N          -9.4353    1.2497    0.4802 N.ar    1  LIG1       -0.3496
     31 H          -8.9610    0.3719    0.6367 H       1  LIG1        0.1661
     32 C          -9.5270    4.6499   -0.7274 C.1     1  LIG1       -0.0674
     33 C          -9.3605    5.7536   -1.1748 C.1     1  LIG1       -0.1138
     34 H          -9.2141    6.7277   -1.5799 H       1  LIG1        0.1232
     35 H         -11.9910    3.1625   -0.1768 H       1  LIG1        0.0652
     36 C         -11.7245    0.3588    0.7486 C.ar    1  LIG1        0.0821
     37 C         -12.9514    0.0352    0.1942 C.ar    1  LIG1        0.0927
     38 C         -13.4413   -1.0911    0.9217 C.ar    1  LIG1        0.1500
     39 C         -12.5133   -1.4163    1.8768 C.ar    1  LIG1        0.0454
     40 N         -11.4732   -0.5236    1.7519 N.ar    1  LIG1       -0.3555
     41 H         -10.7058   -0.4400    2.3992 H       1  LIG1        0.1655
     42 H         -12.5090   -2.1933    2.6206 H       1  LIG1        0.0845
     43 C         -13.5894    0.6851   -0.9074 C.1     1  LIG1       -0.0638
     44 C         -14.1234    1.2372   -1.8316 C.1     1  LIG1       -0.1137
     45 H         -14.5968    1.7169   -2.6559 H       1  LIG1        0.1232
     46 O         -14.6299   -1.6825    0.6353 O.3     1  LIG1       -0.5040
     47 H         -14.8057   -2.3963    1.2562 H       1  LIG1        0.2923
@<TRIPOS>BOND
     1    11     9    1
     2    10     9    1
     3    45    44    1
     4     9     1    1
     5    44    43    3
     6    34    33    1
     7     1     6   ar
     8     1     2   ar
     9     6     5   ar
    10    33    32    3
    11     8     2    1
    12    43    37    1
    13     2     3   ar
    14    32    27    1
    15     5    14    1
    16     5     4   ar
    17    27    28   ar
    18    27    26   ar
    19    24    22    1
    20    35    28    1
    21    18    14   ar
    22    18    17   ar
    23    14    15   ar
    24    28    29   ar
    25     3     4   ar
    26     3     7    1
    27    17    26    1
    28    17    16   ar
    29    26    30   ar
    30    15    19    1
    31    15    16   ar
    32    37    36   ar
    33    37    38   ar
    34    19    20    3
    35    16    22    1
    36     4    12    1
    37    20    21    1
    38    29    30   ar
    39    29    36    1
    40    30    31    1
    41    46    38    1
    42    46    47    1
    43    22    23    1
    44    22    25    1
    45    36    40   ar
    46    38    39   ar
    47    13    12    1
    48    40    39   ar
    49    40    41    1
    50    39    42    1
