@<TRIPOS>MOLECULE
mol_data/opt/m06hf/geoms/mol2/6hf4dl-12li4fi.out
 57 60 0 0 0
SMALL
GASTEIGER

@<TRIPOS>ATOM
      1 C          -4.3471   -2.2361    0.5823 C.ar    1  LIG1        0.1170
      2 C          -3.0552   -2.3467    0.0298 C.ar    1  LIG1       -0.0186
      3 C          -2.4950   -1.2208   -0.5315 C.ar    1  LIG1       -0.0148
      4 C          -3.1889   -0.0067   -0.5142 C.ar    1  LIG1        0.1429
      5 C          -4.4479    0.0112    0.0809 C.ar    1  LIG1        0.1157
      6 N          -5.0116   -1.0907    0.5913 N.ar    1  LIG1       -0.2287
      7 H          -1.5203   -1.2472   -1.0015 H       1  LIG1        0.0656
      8 H          -2.5319   -3.2927    0.0454 H       1  LIG1        0.0653
      9 N          -4.9636   -3.3186    1.1787 N.pl3   1  LIG1       -0.3431
     10 H          -5.9465   -3.1787    1.3616 H       1  LIG1        0.1437
     11 H          -4.7121   -4.2353    0.8441 H       1  LIG1        0.1437
     12 O          -2.6633    1.0872   -1.1572 O.3     1  LIG1       -0.5046
     13 H          -2.1414    1.6160   -0.5363 H       1  LIG1        0.2922
     14 C          -4.8526    2.5015    0.5161 C.ar    1  LIG1        0.0619
     15 C          -5.7055    3.6018    0.5535 C.ar    1  LIG1       -0.0294
     16 C          -5.3066    1.2341    0.1253 C.ar    1  LIG1        0.0248
     17 C          -7.0476    3.4742    0.1897 C.ar    1  LIG1        0.0638
     18 H          -5.3364    4.5617    0.8901 H       1  LIG1        0.0639
     19 C          -6.6536    1.1068   -0.1967 C.ar    1  LIG1       -0.0087
     20 C          -7.5152    2.1971   -0.1714 C.ar    1  LIG1        0.1315
     21 H          -7.0533    0.1367   -0.4592 H       1  LIG1        0.0661
     22 N          -2.4014    2.8383    1.3050 N.1     1  LIG1       -0.1908
     23 C          -3.4885    2.6894    0.9623 C.1     1  LIG1        0.0998
     24 O          -8.8283    1.9810   -0.4758 O.3     1  LIG1       -0.4944
     25 C          -9.1893    2.3160   -1.8170 C.3     1  LIG1        0.0788
     26 H         -10.2722    2.2317   -1.8671 H       1  LIG1        0.0660
     27 H          -8.8907    3.3381   -2.0512 H       1  LIG1        0.0660
     28 H          -8.7186    1.6161   -2.5108 H       1  LIG1        0.0660
     29 C          -7.9070    4.6620    0.2300 C.ar    1  LIG1        0.1809
     30 C          -7.6258    5.9862    0.4130 C.ar    1  LIG1        0.1692
     31 C          -8.8622    6.7163    0.3781 C.ar    1  LIG1        0.0378
     32 C          -9.8152    5.7633    0.1589 C.ar    1  LIG1        0.1457
     33 O          -9.2426    4.5381    0.0770 O.2     1  LIG1       -0.4505
     34 O          -6.3978    6.5409    0.6212 O.3     1  LIG1       -0.4910
     35 C          -5.8049    7.0479   -0.5768 C.3     1  LIG1        0.0790
     36 H          -4.8554    7.4899   -0.2854 H       1  LIG1        0.0660
     37 H          -5.6436    6.2327   -1.2852 H       1  LIG1        0.0660
     38 H          -6.4520    7.8041   -1.0245 H       1  LIG1        0.0660
     39 C          -8.9745    8.1941    0.6473 C.3     1  LIG1       -0.0326
     40 H          -9.8826    8.4092    1.2077 H       1  LIG1        0.0280
     41 H          -9.0089    8.7571   -0.2853 H       1  LIG1        0.0280
     42 H          -8.1043    8.5018    1.2282 H       1  LIG1        0.0280
     43 C         -12.0156    6.8140   -0.4565 C.ar    1  LIG1        0.1275
     44 C         -13.4066    6.7411   -0.5113 C.ar    1  LIG1       -0.0192
     45 C         -11.2842    5.7461    0.0685 C.ar    1  LIG1        0.0593
     46 C         -14.0650    5.6015   -0.0704 C.ar    1  LIG1       -0.0554
     47 H         -13.9691    7.5749   -0.9164 H       1  LIG1        0.0654
     48 C         -11.9695    4.5993    0.4877 C.ar    1  LIG1       -0.0446
     49 C         -13.3550    4.5070    0.4295 C.ar    1  LIG1       -0.0496
     50 H         -11.3827    3.7679    0.8614 H       1  LIG1        0.0628
     51 H         -15.1467    5.5602   -0.1239 H       1  LIG1        0.0621
     52 O         -11.3349    7.8963   -0.9282 O.3     1  LIG1       -0.5061
     53 H         -11.9496    8.5562   -1.2653 H       1  LIG1        0.2922
     54 C         -14.0847    3.2659    0.9112 C.3     1  LIG1       -0.0397
     55 H         -13.3781    2.4614    1.1107 H       1  LIG1        0.0278
     56 H         -14.7969    2.9253    0.1584 H       1  LIG1        0.0278
     57 H         -14.6326    3.4802    1.8305 H       1  LIG1        0.0278
@<TRIPOS>BOND
     1    28    25    1
     2    27    25    1
     3    26    25    1
     4    25    24    1
     5    37    35    1
     6    53    52    1
     7    12    13    1
     8    12     4    1
     9    38    35    1
    10     7     3    1
    11    52    43    1
    12    47    44    1
    13    35    36    1
    14    35    34    1
    15     3     4   ar
    16     3     2   ar
    17     4     5   ar
    18    44    43   ar
    19    44    46   ar
    20    24    20    1
    21    21    19    1
    22    43    45   ar
    23    41    39    1
    24    19    20   ar
    25    19    16   ar
    26    20    17   ar
    27    51    46    1
    28    46    49   ar
    29     2     8    1
    30     2     1   ar
    31    45    32    1
    32    45    48   ar
    33    33    32   ar
    34    33    29   ar
    35     5    16    1
    36     5     6   ar
    37    16    14   ar
    38    56    54    1
    39    32    31   ar
    40    17    29    1
    41    17    15   ar
    42    29    30   ar
    43    31    30   ar
    44    31    39    1
    45    30    34    1
    46    49    48   ar
    47    49    54    1
    48    48    50    1
    49    14    15   ar
    50    14    23    1
    51    15    18    1
    52     1     6   ar
    53     1     9    1
    54    39    40    1
    55    39    42    1
    56    11     9    1
    57    54    55    1
    58    54    57    1
    59    23    22    3
    60     9    10    1
