@<TRIPOS>MOLECULE
mol_data/opt/m06hf/geoms/mol2/6hf6hf6hf6hf-.out
 50 53 0 0 0
SMALL
GASTEIGER

@<TRIPOS>ATOM
      1 C          -3.8063   -1.9000   -1.0991 C.ar    1  LIG1        0.1170
      2 C          -2.9417   -2.2394   -0.0404 C.ar    1  LIG1       -0.0186
      3 C          -2.9341   -1.4379    1.0797 C.ar    1  LIG1       -0.0148
      4 C          -3.7581   -0.3104    1.1320 C.ar    1  LIG1        0.1429
      5 C          -4.5548   -0.0266    0.0260 C.ar    1  LIG1        0.1177
      6 N          -4.5811   -0.8285   -1.0493 N.ar    1  LIG1       -0.2287
      7 H          -2.3117   -1.6603    1.9361 H       1  LIG1        0.0656
      8 H          -2.3219   -3.1234   -0.1029 H       1  LIG1        0.0653
      9 N          -3.9169   -2.7044   -2.2236 N.pl3   1  LIG1       -0.3431
     10 H          -4.3358   -2.2320   -3.0125 H       1  LIG1        0.1437
     11 H          -3.1027   -3.2515   -2.4598 H       1  LIG1        0.1437
     12 O          -3.7352    0.4465    2.2652 O.3     1  LIG1       -0.5046
     13 H          -4.5372    0.9822    2.3191 H       1  LIG1        0.2922
     14 C          -6.7698    1.1287   -0.4464 C.ar    1  LIG1        0.1264
     15 C          -5.4227    1.1864    0.0027 C.ar    1  LIG1        0.0470
     16 C          -4.9418    2.4153    0.4264 C.ar    1  LIG1       -0.0055
     17 C          -5.7648    3.5416    0.4201 C.ar    1  LIG1        0.1436
     18 C          -7.0710    3.3933   -0.0408 C.ar    1  LIG1        0.1177
     19 N          -7.5430    2.2058   -0.4439 N.ar    1  LIG1       -0.2280
     20 H          -3.9188    2.5261    0.7680 H       1  LIG1        0.0662
     21 N          -7.3350   -0.0535   -0.8562 N.pl3   1  LIG1       -0.3426
     22 H          -8.2111    0.0634   -1.3433 H       1  LIG1        0.1437
     23 H          -6.6866   -0.7243   -1.2482 H       1  LIG1        0.1437
     24 O          -5.2412    4.7163    0.8702 O.3     1  LIG1       -0.5046
     25 H          -5.9529    5.3331    1.0861 H       1  LIG1        0.2922
     26 C          -9.3431    4.4652    0.3543 C.ar    1  LIG1        0.1264
     27 C          -7.9970    4.5604   -0.0968 C.ar    1  LIG1        0.0470
     28 C          -7.5799    5.7798   -0.6020 C.ar    1  LIG1       -0.0055
     29 C          -8.4353    6.8897   -0.6249 C.ar    1  LIG1        0.1436
     30 C          -9.7333    6.6957   -0.1449 C.ar    1  LIG1        0.1177
     31 N         -10.1525    5.5105    0.3241 N.ar    1  LIG1       -0.2280
     32 H          -6.5767    5.9109   -0.9919 H       1  LIG1        0.0662
     33 N          -9.8352    3.2953    0.8836 N.pl3   1  LIG1       -0.3426
     34 H         -10.8387    3.2963    0.9920 H       1  LIG1        0.1437
     35 H          -9.4218    2.4509    0.5091 H       1  LIG1        0.1437
     36 O          -7.9410    8.0707   -1.0577 O.3     1  LIG1       -0.5046
     37 H          -8.6470    8.5461   -1.5801 H       1  LIG1        0.2922
     38 C         -10.9276    8.7859   -1.0107 C.ar    1  LIG1        0.1257
     39 C         -10.7329    7.7997   -0.0374 C.ar    1  LIG1        0.0469
     40 C         -11.5550    7.8463    1.0877 C.ar    1  LIG1       -0.0061
     41 C         -12.4593    8.8874    1.2322 C.ar    1  LIG1        0.1356
     42 C         -12.5270    9.8523    0.2265 C.ar    1  LIG1        0.0711
     43 N         -11.7898    9.7840   -0.8730 N.ar    1  LIG1       -0.2364
     44 H         -11.4570    7.0633    1.8313 H       1  LIG1        0.0662
     45 H         -13.2155   10.6817    0.3289 H       1  LIG1        0.0867
     46 N         -10.1733    8.7663   -2.2177 N.pl3   1  LIG1       -0.3426
     47 H         -10.3135    7.9020   -2.7381 H       1  LIG1        0.1437
     48 H         -10.4386    9.5656   -2.7862 H       1  LIG1        0.1437
     49 O         -13.2873    9.0335    2.3013 O.3     1  LIG1       -0.5052
     50 H         -13.1166    8.3508    2.9586 H       1  LIG1        0.2922
@<TRIPOS>BOND
     1    10     9    1
     2    48    46    1
     3    47    46    1
     4    11     9    1
     5     9     1    1
     6    46    38    1
     7    37    36    1
     8    22    21    1
     9    23    21    1
    10     1     6   ar
    11     1     2   ar
    12    36    29    1
    13     6     5   ar
    14    38    43   ar
    15    38    39   ar
    16    32    28    1
    17    43    42   ar
    18    21    14    1
    19    29    28   ar
    20    29    30   ar
    21    28    27   ar
    22    14    19   ar
    23    14    15   ar
    24    19    18   ar
    25    30    39    1
    26    30    31   ar
    27     8     2    1
    28    27    18    1
    29    27    26   ar
    30    18    17   ar
    31     2     3   ar
    32    39    40   ar
    33    15     5    1
    34    15    16   ar
    35     5     4   ar
    36    42    45    1
    37    42    41   ar
    38    31    26   ar
    39    26    33    1
    40    17    16   ar
    41    17    24    1
    42    16    20    1
    43    35    33    1
    44    24    25    1
    45    33    34    1
    46     3     4   ar
    47     3     7    1
    48    40    41   ar
    49    40    44    1
    50     4    12    1
    51    41    49    1
    52    12    13    1
    53    49    50    1
