@<TRIPOS>MOLECULE
mol_data/opt/m06hf/geoms/mol2/6hf6hf6hf.out
 38 40 0 0 0
SMALL
GASTEIGER

@<TRIPOS>ATOM
      1 C          -4.1877   -2.0134   -0.9292 C.ar    1  LIG1        0.1170
      2 C          -3.0211   -2.1566   -0.1530 C.ar    1  LIG1       -0.0186
      3 C          -2.6791   -1.1364    0.7069 C.ar    1  LIG1       -0.0148
      4 C          -3.4747    0.0105    0.7747 C.ar    1  LIG1        0.1429
      5 C          -4.5908    0.0865   -0.0543 C.ar    1  LIG1        0.1177
      6 N          -4.9355   -0.9235   -0.8671 N.ar    1  LIG1       -0.2287
      7 H          -1.8088   -1.1981    1.3468 H       1  LIG1        0.0656
      8 H          -2.4277   -3.0583   -0.2189 H       1  LIG1        0.0653
      9 N          -4.6292   -3.0322   -1.7604 N.pl3   1  LIG1       -0.3431
     10 H          -5.2868   -2.7192   -2.4610 H       1  LIG1        0.1437
     11 H          -3.9190   -3.6550   -2.1150 H       1  LIG1        0.1437
     12 O          -3.1109    0.9899    1.6502 O.3     1  LIG1       -0.5046
     13 H          -3.8682    1.5583    1.8403 H       1  LIG1        0.2922
     14 C          -6.8749    1.2013   -0.0328 C.ar    1  LIG1        0.1264
     15 C          -5.4574    1.3008   -0.0594 C.ar    1  LIG1        0.0470
     16 C          -4.9046    2.5718   -0.0832 C.ar    1  LIG1       -0.0055
     17 C          -5.7228    3.7016   -0.0684 C.ar    1  LIG1        0.1436
     18 C          -7.1017    3.5097   -0.0463 C.ar    1  LIG1        0.1177
     19 N          -7.6407    2.2839   -0.0144 N.ar    1  LIG1       -0.2280
     20 H          -3.8300    2.7121   -0.1179 H       1  LIG1        0.0662
     21 N          -7.5032   -0.0177    0.0203 N.pl3   1  LIG1       -0.3426
     22 H          -8.4929    0.0259   -0.1729 H       1  LIG1        0.1437
     23 H          -6.9924   -0.7816   -0.4037 H       1  LIG1        0.1437
     24 O          -5.1244    4.9265   -0.0732 O.3     1  LIG1       -0.5046
     25 H          -5.7539    5.5967    0.2232 H       1  LIG1        0.2922
     26 C          -9.1417    4.7357    0.8366 C.ar    1  LIG1        0.1257
     27 C          -8.0322    4.6754   -0.0482 C.ar    1  LIG1        0.0469
     28 C          -7.8401    5.7338   -0.9265 C.ar    1  LIG1       -0.0061
     29 C          -8.7015    6.8290   -0.8925 C.ar    1  LIG1        0.1356
     30 C          -9.7336    6.8083    0.0325 C.ar    1  LIG1        0.0711
     31 N          -9.9514    5.7888    0.8605 N.ar    1  LIG1       -0.2364
     32 H          -7.0345    5.7184   -1.6522 H       1  LIG1        0.0662
     33 H         -10.4260    7.6425    0.1047 H       1  LIG1        0.0867
     34 N          -9.3925    3.7276    1.7345 N.pl3   1  LIG1       -0.3426
     35 H         -10.2917    3.8077    2.1856 H       1  LIG1        0.1437
     36 H          -9.1103    2.8031    1.4365 H       1  LIG1        0.1437
     37 O          -8.4827    7.8584   -1.7633 O.3     1  LIG1       -0.5052
     38 H          -9.1713    8.5258   -1.6742 H       1  LIG1        0.2922
@<TRIPOS>BOND
     1    10     9    1
     2    11     9    1
     3    37    38    1
     4    37    29    1
     5     9     1    1
     6    32    28    1
     7     1     6   ar
     8     1     2   ar
     9    28    29   ar
    10    28    27   ar
    11    29    30   ar
    12     6     5   ar
    13    23    21    1
    14     8     2    1
    15    22    21    1
    16     2     3   ar
    17    20    16    1
    18    16    17   ar
    19    16    15   ar
    20    24    17    1
    21    24    25    1
    22    17    18   ar
    23    15     5    1
    24    15    14   ar
    25     5     4   ar
    26    27    18    1
    27    27    26   ar
    28    18    19   ar
    29    14    19   ar
    30    14    21    1
    31    30    33    1
    32    30    31   ar
    33     3     4   ar
    34     3     7    1
    35     4    12    1
    36    26    31   ar
    37    26    34    1
    38    36    34    1
    39    12    13    1
    40    34    35    1
