@<TRIPOS>MOLECULE
mol_data/opt/m06hf/geoms/mol2/6hf6hf-6hf6hf-.out
 50 53 0 0 0
SMALL
GASTEIGER

@<TRIPOS>ATOM
      1 C          -3.9840   -2.0297   -0.7505 C.ar    1  LIG1        0.1170
      2 C          -3.1874   -2.3837    0.3588 C.ar    1  LIG1       -0.0186
      3 C          -3.0612   -1.4760    1.3833 C.ar    1  LIG1       -0.0148
      4 C          -3.7265   -0.2394    1.3273 C.ar    1  LIG1        0.1429
      5 C          -4.4894    0.0196    0.1860 C.ar    1  LIG1        0.1177
      6 N          -4.6033   -0.8679   -0.8185 N.ar    1  LIG1       -0.2287
      7 H          -2.4735   -1.6893    2.2666 H       1  LIG1        0.0656
      8 H          -2.7042   -3.3509    0.3978 H       1  LIG1        0.0653
      9 N          -4.1874   -2.9229   -1.7977 N.pl3   1  LIG1       -0.3431
     10 H          -4.5683   -2.4767   -2.6207 H       1  LIG1        0.1437
     11 H          -3.4185   -3.5461   -1.9962 H       1  LIG1        0.1437
     12 O          -3.6288    0.5827    2.3934 O.3     1  LIG1       -0.5046
     13 H          -3.6094    1.5306    2.0827 H       1  LIG1        0.2922
     14 C          -4.9242    2.5399    0.4031 C.ar    1  LIG1        0.1264
     15 C          -5.3169    1.2503    0.0225 C.ar    1  LIG1        0.0470
     16 C          -6.5649    1.1419   -0.5814 C.ar    1  LIG1       -0.0055
     17 C          -7.3804    2.2560   -0.7071 C.ar    1  LIG1        0.1436
     18 C          -6.9359    3.4882   -0.2102 C.ar    1  LIG1        0.1177
     19 N          -5.7088    3.5974    0.2985 N.ar    1  LIG1       -0.2280
     20 H          -6.8761    0.1688   -0.9462 H       1  LIG1        0.0662
     21 N          -3.6338    2.7656    0.9549 N.pl3   1  LIG1       -0.3426
     22 H          -2.8912    2.4778    0.3203 H       1  LIG1        0.1437
     23 H          -3.5397    3.7493    1.1922 H       1  LIG1        0.1437
     24 O          -8.6068    2.1939   -1.3095 O.3     1  LIG1       -0.5046
     25 H          -8.7453    1.3229   -1.6974 H       1  LIG1        0.2922
     26 C          -9.0699    4.8826    0.1405 C.ar    1  LIG1        0.1264
     27 C          -7.7244    4.7520   -0.2871 C.ar    1  LIG1        0.0470
     28 C          -7.0710    5.8972   -0.7027 C.ar    1  LIG1       -0.0055
     29 C          -7.7107    7.1401   -0.7092 C.ar    1  LIG1        0.1436
     30 C          -9.0393    7.1665   -0.2714 C.ar    1  LIG1        0.1177
     31 N          -9.6751    6.0596    0.1363 N.ar    1  LIG1       -0.2280
     32 H          -6.0320    5.8531   -1.0025 H       1  LIG1        0.0662
     33 N          -9.7860    3.8179    0.6668 N.pl3   1  LIG1       -0.3426
     34 H         -10.7489    4.0786    0.8327 H       1  LIG1        0.1437
     35 H          -9.6840    2.9493    0.1566 H       1  LIG1        0.1437
     36 O          -6.9985    8.2293   -1.0737 O.3     1  LIG1       -0.5046
     37 H          -7.5927    8.8558   -1.5732 H       1  LIG1        0.2922
     38 C          -9.8061    9.4858   -1.0383 C.ar    1  LIG1        0.1257
     39 C          -9.8231    8.4290   -0.1220 C.ar    1  LIG1        0.0469
     40 C         -10.6503    8.5690    0.9913 C.ar    1  LIG1       -0.0061
     41 C         -11.3492    9.7511    1.1825 C.ar    1  LIG1        0.1356
     42 C         -11.2095   10.7654    0.2351 C.ar    1  LIG1        0.0711
     43 N         -10.4696   10.6192   -0.8553 N.ar    1  LIG1       -0.2364
     44 H         -10.7157    7.7437    1.6915 H       1  LIG1        0.0662
     45 H         -11.7313   11.7037    0.3758 H       1  LIG1        0.0867
     46 N          -9.0363    9.3912   -2.2318 N.pl3   1  LIG1       -0.3426
     47 H          -9.3177    8.5961   -2.8025 H       1  LIG1        0.1437
     48 H          -9.1329   10.2553   -2.7576 H       1  LIG1        0.1437
     49 O         -12.1625    9.9876    2.2473 O.3     1  LIG1       -0.5052
     50 H         -12.1507    9.2392    2.8529 H       1  LIG1        0.2922
@<TRIPOS>BOND
     1    47    46    1
     2    48    46    1
     3    10     9    1
     4    46    38    1
     5    11     9    1
     6     9     1    1
     7    25    24    1
     8    37    36    1
     9    24    17    1
    10    36    29    1
    11    38    43   ar
    12    38    39   ar
    13    32    28    1
    14    20    16    1
    15    43    42   ar
    16     6     1   ar
    17     6     5   ar
    18     1     2   ar
    19    29    28   ar
    20    29    30   ar
    21    17    16   ar
    22    17    18   ar
    23    28    27   ar
    24    16    15   ar
    25    27    18    1
    26    27    26   ar
    27    30    39    1
    28    30    31   ar
    29    18    19   ar
    30    39    40   ar
    31    15     5    1
    32    15    14   ar
    33    31    26   ar
    34    26    33    1
    35    35    33    1
    36     5     4   ar
    37    42    45    1
    38    42    41   ar
    39    19    14   ar
    40    22    21    1
    41     2     8    1
    42     2     3   ar
    43    14    21    1
    44    33    34    1
    45    21    23    1
    46    40    41   ar
    47    40    44    1
    48    41    49    1
    49     4     3   ar
    50     4    12    1
    51     3     7    1
    52    13    12    1
    53    49    50    1
