@<TRIPOS>MOLECULE
mol_data/opt/m06hf/geoms/mol2/6hf6hf6hf-6hf-.out
 50 53 0 0 0
SMALL
GASTEIGER

@<TRIPOS>ATOM
      1 C          -4.1541   -2.1526   -0.7510 C.ar    1  LIG1        0.1170
      2 C          -3.0564   -2.3207    0.1155 C.ar    1  LIG1       -0.0186
      3 C          -2.7401   -1.2929    0.9760 C.ar    1  LIG1       -0.0148
      4 C          -3.4932   -0.1155    0.9586 C.ar    1  LIG1        0.1429
      5 C          -4.5415   -0.0192    0.0470 C.ar    1  LIG1        0.1177
      6 N          -4.8622   -1.0353   -0.7686 N.ar    1  LIG1       -0.2287
      7 H          -1.9243   -1.3717    1.6823 H       1  LIG1        0.0656
      8 H          -2.4985   -3.2471    0.1169 H       1  LIG1        0.0653
      9 N          -4.5697   -3.1756   -1.5920 N.pl3   1  LIG1       -0.3431
     10 H          -5.1737   -2.8570   -2.3368 H       1  LIG1        0.1437
     11 H          -3.8523   -3.8170   -1.8958 H       1  LIG1        0.1437
     12 O          -3.1567    0.8691    1.8374 O.3     1  LIG1       -0.5046
     13 H          -3.8910    1.4892    1.9361 H       1  LIG1        0.2922
     14 C          -6.7794    1.1804   -0.1332 C.ar    1  LIG1        0.1264
     15 C          -5.3584    1.2249   -0.0468 C.ar    1  LIG1        0.0470
     16 C          -4.7597    2.4720   -0.0598 C.ar    1  LIG1       -0.0055
     17 C          -5.5236    3.6467   -0.1075 C.ar    1  LIG1        0.1436
     18 C          -6.9101    3.4947   -0.1773 C.ar    1  LIG1        0.1177
     19 N          -7.4987    2.2885   -0.1902 N.ar    1  LIG1       -0.2280
     20 H          -3.6809    2.5756   -0.0251 H       1  LIG1        0.0662
     21 N          -7.4553   -0.0151   -0.1127 N.pl3   1  LIG1       -0.3426
     22 H          -8.4287    0.0675   -0.3651 H       1  LIG1        0.1437
     23 H          -6.9493   -0.8023   -0.4974 H       1  LIG1        0.1437
     24 O          -4.8778    4.8320   -0.0251 O.3     1  LIG1       -0.5046
     25 H          -5.3255    5.4950   -0.6175 H       1  LIG1        0.2922
     26 C          -7.6570    5.8484   -0.8492 C.ar    1  LIG1        0.1264
     27 C          -7.8519    4.6508   -0.1560 C.ar    1  LIG1        0.0470
     28 C          -9.0270    4.5514    0.5827 C.ar    1  LIG1       -0.0055
     29 C          -9.8996    5.6249    0.6707 C.ar    1  LIG1        0.1436
     30 C          -9.5907    6.8129   -0.0167 C.ar    1  LIG1        0.1177
     31 N          -8.4853    6.8763   -0.7628 N.ar    1  LIG1       -0.2280
     32 H          -9.2313    3.6189    1.0978 H       1  LIG1        0.0662
     33 N          -6.5212    6.0168   -1.6864 N.pl3   1  LIG1       -0.3426
     34 H          -6.4625    5.2870   -2.3946 H       1  LIG1        0.1437
     35 H          -6.5523    6.9311   -2.1276 H       1  LIG1        0.1437
     36 O         -11.0409    5.5633    1.4130 O.3     1  LIG1       -0.5046
     37 H         -11.0332    4.7764    1.9685 H       1  LIG1        0.2922
     38 C          -9.9338    9.3261    0.0293 C.ar    1  LIG1        0.1257
     39 C         -10.4678    8.0146    0.0324 C.ar    1  LIG1        0.0469
     40 C         -11.8548    7.8798    0.0624 C.ar    1  LIG1       -0.0061
     41 C         -12.6614    9.0069    0.1096 C.ar    1  LIG1        0.1356
     42 C         -12.0404   10.2506    0.1202 C.ar    1  LIG1        0.0711
     43 N         -10.7245   10.4000    0.0745 N.ar    1  LIG1       -0.2364
     44 H         -12.2950    6.8902    0.0573 H       1  LIG1        0.0662
     45 H         -12.6474   11.1473    0.1607 H       1  LIG1        0.0867
     46 N          -8.5814    9.5751    0.0371 N.pl3   1  LIG1       -0.3426
     47 H          -8.0046    8.8877   -0.4233 H       1  LIG1        0.1437
     48 H          -8.3586   10.5463   -0.1231 H       1  LIG1        0.1437
     49 O         -14.0285    8.9681    0.1354 O.3     1  LIG1       -0.5052
     50 H         -14.3328    8.0628    0.2531 H       1  LIG1        0.2922
@<TRIPOS>BOND
     1    34    33    1
     2    10     9    1
     3    35    33    1
     4    11     9    1
     5    33    26    1
     6     9     1    1
     7    26    31   ar
     8    26    27   ar
     9     6     1   ar
    10     6     5   ar
    11    31    30   ar
    12     1     2   ar
    13    25    24    1
    14    23    21    1
    15    47    46    1
    16    22    21    1
    17    19    18   ar
    18    19    14   ar
    19    18    27    1
    20    18    17   ar
    21    27    28   ar
    22    14    21    1
    23    14    15   ar
    24    48    46    1
    25    17    16   ar
    26    17    24    1
    27    16    15   ar
    28    16    20    1
    29    15     5    1
    30    30    39    1
    31    30    29   ar
    32    38    39   ar
    33    38    46    1
    34    38    43   ar
    35    39    40   ar
    36     5     4   ar
    37    44    40    1
    38    40    41   ar
    39    43    42   ar
    40    41    42   ar
    41    41    49    1
    42     2     8    1
    43     2     3   ar
    44    42    45    1
    45    49    50    1
    46    28    29   ar
    47    28    32    1
    48    29    36    1
    49     4     3   ar
    50     4    12    1
    51     3     7    1
    52    36    37    1
    53    12    13    1
