@<TRIPOS>MOLECULE
mol_data/opt/m06hf/geoms/mol2/6hf6hf-6hf-6hf.out
 50 53 0 0 0
SMALL
GASTEIGER

@<TRIPOS>ATOM
      1 C          -4.4304   -2.2505    0.0004 C.ar    1  LIG1        0.1170
      2 C          -3.0268   -2.3080    0.1353 C.ar    1  LIG1       -0.0186
      3 C          -2.3261   -1.1258    0.1500 C.ar    1  LIG1       -0.0148
      4 C          -3.0004    0.1029    0.0504 C.ar    1  LIG1        0.1429
      5 C          -4.3897    0.0559   -0.0850 C.ar    1  LIG1        0.1177
      6 N          -5.0717   -1.1031   -0.1067 N.ar    1  LIG1       -0.2287
      7 H          -1.2503   -1.1002    0.2616 H       1  LIG1        0.0656
      8 H          -2.5270   -3.2620    0.2378 H       1  LIG1        0.0653
      9 N          -5.1975   -3.4088    0.0283 N.pl3   1  LIG1       -0.3431
     10 H          -6.1392   -3.2646   -0.3086 H       1  LIG1        0.1437
     11 H          -4.7562   -4.2382   -0.3406 H       1  LIG1        0.1437
     12 O          -2.2725    1.2370    0.1517 O.3     1  LIG1       -0.5046
     13 H          -2.6464    1.9309   -0.4553 H       1  LIG1        0.2922
     14 C          -4.9275    2.4553   -0.8026 C.ar    1  LIG1        0.1264
     15 C          -5.2417    1.2797   -0.1141 C.ar    1  LIG1        0.0470
     16 C          -6.4511    1.2753    0.5733 C.ar    1  LIG1       -0.0055
     17 C          -7.2439    2.4120    0.6192 C.ar    1  LIG1        0.1436
     18 C          -6.8164    3.5682   -0.0572 C.ar    1  LIG1        0.1177
     19 N          -5.6778    3.5434   -0.7546 N.ar    1  LIG1       -0.2280
     20 H          -6.7464    0.3652    1.0843 H       1  LIG1        0.0662
     21 N          -3.7467    2.5320   -1.5880 N.pl3   1  LIG1       -0.3426
     22 H          -3.7060    1.7879   -2.2825 H       1  LIG1        0.1437
     23 H          -3.6921    3.4391   -2.0416 H       1  LIG1        0.1437
     24 O          -8.4175    2.4396    1.3127 O.3     1  LIG1       -0.5046
     25 H          -8.4924    1.6558    1.8676 H       1  LIG1        0.2922
     26 C          -6.9694    6.1074   -0.0502 C.ar    1  LIG1        0.1264
     27 C          -7.5975    4.8344   -0.0481 C.ar    1  LIG1        0.0470
     28 C          -8.9863    4.8198   -0.0467 C.ar    1  LIG1       -0.0055
     29 C          -9.7075    6.0055   -0.0283 C.ar    1  LIG1        0.1436
     30 C          -9.0112    7.2140   -0.0494 C.ar    1  LIG1        0.1177
     31 N          -7.6787    7.2321   -0.0503 N.ar    1  LIG1       -0.2280
     32 H          -9.5111    3.8724   -0.0393 H       1  LIG1        0.0662
     33 N          -5.6072    6.2563   -0.0002 N.pl3   1  LIG1       -0.3426
     34 H          -5.0637    5.5108   -0.4080 H       1  LIG1        0.1437
     35 H          -5.3020    7.2032   -0.1695 H       1  LIG1        0.1437
     36 O         -11.0819    6.0175    0.0140 O.3     1  LIG1       -0.5046
     37 H         -11.4134    5.1841    0.3636 H       1  LIG1        0.2922
     38 C         -10.7375    8.9412   -0.8627 C.ar    1  LIG1        0.1257
     39 C          -9.6749    8.5510   -0.0118 C.ar    1  LIG1        0.0469
     40 C          -9.1411    9.5009    0.8465 C.ar    1  LIG1       -0.0061
     41 C          -9.6677   10.7873    0.8734 C.ar    1  LIG1        0.1356
     42 C         -10.7122   11.0732    0.0067 C.ar    1  LIG1        0.0711
     43 N         -11.2275   10.1777   -0.8298 N.ar    1  LIG1       -0.2364
     44 H          -8.3037    9.2454    1.4826 H       1  LIG1        0.0662
     45 H         -11.1530   12.0662   -0.0171 H       1  LIG1        0.0867
     46 N         -11.2627    8.1024   -1.8331 N.pl3   1  LIG1       -0.3426
     47 H         -12.0628    8.5320   -2.2785 H       1  LIG1        0.1437
     48 H         -11.4284    7.1511   -1.5289 H       1  LIG1        0.1437
     49 O          -9.1339   11.7010    1.7389 O.3     1  LIG1       -0.5052
     50 H          -9.5610   12.5566    1.6242 H       1  LIG1        0.2922
@<TRIPOS>BOND
     1    22    21    1
     2    47    46    1
     3    23    21    1
     4    46    48    1
     5    46    38    1
     6    21    14    1
     7    38    43   ar
     8    38    39   ar
     9    43    42   ar
    10    14    19   ar
    11    14    15   ar
    12    19    18   ar
    13    13    12    1
    14    34    33    1
    15    11     9    1
    16    10     9    1
    17    35    33    1
    18    15     5    1
    19    15    16   ar
    20     6     5   ar
    21     6     1   ar
    22     5     4   ar
    23    18    27    1
    24    18    17   ar
    25    31    26   ar
    26    31    30   ar
    27    26    27   ar
    28    26    33    1
    29    30    29   ar
    30    30    39    1
    31    27    28   ar
    32    28    32    1
    33    28    29   ar
    34    29    36    1
    35    45    42    1
    36    39    40   ar
    37     1     9    1
    38     1     2   ar
    39    42    41   ar
    40    36    37    1
    41     4     3   ar
    42     4    12    1
    43     2     3   ar
    44     2     8    1
    45     3     7    1
    46    16    17   ar
    47    16    20    1
    48    17    24    1
    49    40    41   ar
    50    40    44    1
    51    41    49    1
    52    24    25    1
    53    50    49    1
