@<TRIPOS>MOLECULE
mol_data/opt/m06hf/geoms/mol2/6hf6hf.out
 26 27 0 0 0
SMALL
GASTEIGER

@<TRIPOS>ATOM
      1 C          -4.4330   -2.0558   -0.5194 C.ar    1  LIG1        0.1170
      2 C          -3.0890   -2.0768   -0.1011 C.ar    1  LIG1       -0.0186
      3 C          -2.5369   -0.9105    0.3822 C.ar    1  LIG1       -0.0148
      4 C          -3.3065    0.2545    0.4287 C.ar    1  LIG1        0.1429
      5 C          -4.6180    0.1965   -0.0388 C.ar    1  LIG1        0.1177
      6 N          -5.1571   -0.9488   -0.4818 N.ar    1  LIG1       -0.2287
      7 H          -1.5177   -0.8695    0.7426 H       1  LIG1        0.0656
      8 H          -2.5186   -2.9946   -0.1376 H       1  LIG1        0.0653
      9 N          -5.0727   -3.2114   -0.9456 N.pl3   1  LIG1       -0.3431
     10 H          -5.9166   -3.0278   -1.4703 H       1  LIG1        0.1437
     11 H          -4.4820   -3.9185   -1.3568 H       1  LIG1        0.1437
     12 O          -2.7303    1.3820    0.9333 O.3     1  LIG1       -0.5046
     13 H          -3.4168    2.0124    1.1863 H       1  LIG1        0.2922
     14 C          -6.8248    1.3765    0.4037 C.ar    1  LIG1        0.1257
     15 C          -5.4776    1.4157   -0.0486 C.ar    1  LIG1        0.0469
     16 C          -4.9819    2.6282   -0.5097 C.ar    1  LIG1       -0.0061
     17 C          -5.7864    3.7660   -0.4799 C.ar    1  LIG1        0.1356
     18 C          -7.0756    3.6298    0.0098 C.ar    1  LIG1        0.0711
     19 N          -7.5797    2.4698    0.4257 N.ar    1  LIG1       -0.2364
     20 H          -3.9753    2.7048   -0.9053 H       1  LIG1        0.0662
     21 H          -7.7392    4.4886    0.0608 H       1  LIG1        0.0867
     22 N          -7.3837    0.2173    0.8793 N.pl3   1  LIG1       -0.3426
     23 H          -8.3813    0.2760    1.0180 H       1  LIG1        0.1437
     24 H          -7.0198   -0.6381    0.4813 H       1  LIG1        0.1437
     25 O          -5.2635    4.9462   -0.9269 O.3     1  LIG1       -0.5052
     26 H          -5.9369    5.6344   -0.9216 H       1  LIG1        0.2922
@<TRIPOS>BOND
     1    10     9    1
     2    11     9    1
     3     9     1    1
     4    25    26    1
     5    25    17    1
     6    20    16    1
     7     1     6   ar
     8     1     2   ar
     9    16    17   ar
    10    16    15   ar
    11     6     5   ar
    12    17    18   ar
    13     8     2    1
    14     2     3   ar
    15    15     5    1
    16    15    14   ar
    17     5     4   ar
    18    18    21    1
    19    18    19   ar
    20     3     4   ar
    21     3     7    1
    22    14    19   ar
    23    14    22    1
    24     4    12    1
    25    24    22    1
    26    22    23    1
    27    12    13    1
