@<TRIPOS>MOLECULE
mol_data/opt/m06hf/geoms/mol2/6hf6hf-.out
 26 27 0 0 0
SMALL
GASTEIGER

@<TRIPOS>ATOM
      1 C          -4.5108   -2.0579   -0.3437 C.ar    1  LIG1        0.1170
      2 C          -3.1957   -2.1594    0.1544 C.ar    1  LIG1       -0.0186
      3 C          -2.5669   -1.0073    0.5650 C.ar    1  LIG1       -0.0148
      4 C          -3.2323    0.2283    0.5054 C.ar    1  LIG1        0.1429
      5 C          -4.5331    0.2259   -0.0041 C.ar    1  LIG1        0.1177
      6 N          -5.1404   -0.9012   -0.4142 N.ar    1  LIG1       -0.2287
      7 H          -1.5613   -1.0158    0.9646 H       1  LIG1        0.0656
      8 H          -2.7094   -3.1235    0.2191 H       1  LIG1        0.0653
      9 N          -5.2178   -3.1913   -0.7350 N.pl3   1  LIG1       -0.3431
     10 H          -6.0423   -2.9641   -1.2739 H       1  LIG1        0.1437
     11 H          -4.6651   -3.9341   -1.1376 H       1  LIG1        0.1437
     12 O          -2.5981    1.3186    0.9887 O.3     1  LIG1       -0.5046
     13 H          -2.8224    2.1073    0.4188 H       1  LIG1        0.2922
     14 C          -4.9429    2.7191   -0.4172 C.ar    1  LIG1        0.1257
     15 C          -5.3919    1.4470   -0.0467 C.ar    1  LIG1        0.0469
     16 C          -6.7420    1.3217    0.2782 C.ar    1  LIG1       -0.0061
     17 C          -7.5509    2.4479    0.2949 C.ar    1  LIG1        0.1356
     18 C          -6.9821    3.6788   -0.0344 C.ar    1  LIG1        0.0711
     19 N          -5.7131    3.7984   -0.3985 N.ar    1  LIG1       -0.2364
     20 H          -7.1244    0.3375    0.5246 H       1  LIG1        0.0662
     21 H          -7.5922    4.5729   -0.0114 H       1  LIG1        0.0867
     22 N          -3.5924    2.9157   -0.8226 N.pl3   1  LIG1       -0.3426
     23 H          -3.3542    2.3479   -1.6338 H       1  LIG1        0.1437
     24 H          -3.4487    3.9002   -1.0291 H       1  LIG1        0.1437
     25 O          -8.8710    2.4305    0.6223 O.3     1  LIG1       -0.5052
     26 H          -9.1456    1.5427    0.8746 H       1  LIG1        0.2922
@<TRIPOS>BOND
     1    23    22    1
     2    10     9    1
     3    11     9    1
     4    24    22    1
     5    22    14    1
     6     9     1    1
     7    14    19   ar
     8    14    15   ar
     9     6     1   ar
    10     6     5   ar
    11    19    18   ar
    12     1     2   ar
    13    15     5    1
    14    15    16   ar
    15    18    21    1
    16    18    17   ar
    17     5     4   ar
    18     2     8    1
    19     2     3   ar
    20    16    17   ar
    21    16    20    1
    22    17    25    1
    23    13    12    1
    24     4     3   ar
    25     4    12    1
    26     3     7    1
    27    25    26    1
