@<TRIPOS>MOLECULE
mol_data/opt/m06hf/geoms/mol2/6hf6hf-4hf6hf.out
 51 54 0 0 0
SMALL
GASTEIGER

@<TRIPOS>ATOM
      1 C          -4.3990   -2.2384    0.1178 C.ar    1  LIG1        0.1170
      2 C          -2.9892   -2.2836    0.1591 C.ar    1  LIG1       -0.0186
      3 C          -2.2988   -1.0988    0.0660 C.ar    1  LIG1       -0.0148
      4 C          -2.9877    0.1202   -0.0496 C.ar    1  LIG1        0.1429
      5 C          -4.3830    0.0609   -0.0871 C.ar    1  LIG1        0.1177
      6 N          -5.0551   -1.1009   -0.0039 N.ar    1  LIG1       -0.2287
      7 H          -1.2180   -1.0622    0.1028 H       1  LIG1        0.0656
      8 H          -2.4765   -3.2289    0.2761 H       1  LIG1        0.0653
      9 N          -5.1547   -3.3964    0.2583 N.pl3   1  LIG1       -0.3431
     10 H          -6.1186   -3.2713   -0.0183 H       1  LIG1        0.1437
     11 H          -4.7358   -4.2427   -0.0982 H       1  LIG1        0.1437
     12 O          -2.2634    1.2613   -0.0575 O.3     1  LIG1       -0.5046
     13 H          -2.6847    1.9202   -0.6733 H       1  LIG1        0.2922
     14 C          -4.9841    2.4195   -0.8836 C.ar    1  LIG1        0.1264
     15 C          -5.2438    1.2789   -0.1181 C.ar    1  LIG1        0.0470
     16 C          -6.4028    1.3060    0.6515 C.ar    1  LIG1       -0.0055
     17 C          -7.1958    2.4428    0.6964 C.ar    1  LIG1        0.1435
     18 C          -6.8199    3.5649   -0.0625 C.ar    1  LIG1        0.1162
     19 N          -5.7338    3.5085   -0.8366 N.ar    1  LIG1       -0.2280
     20 H          -6.6568    0.4221    1.2267 H       1  LIG1        0.0662
     21 N          -3.8609    2.4597   -1.7533 N.pl3   1  LIG1       -0.3426
     22 H          -3.8687    1.6854   -2.4150 H       1  LIG1        0.1437
     23 H          -3.8447    3.3455   -2.2501 H       1  LIG1        0.1437
     24 O          -8.3199    2.5065    1.4636 O.3     1  LIG1       -0.5046
     25 H          -8.3563    1.7512    2.0603 H       1  LIG1        0.2922
     26 C          -6.9684    6.0868   -0.0476 C.ar    1  LIG1        0.0348
     27 C          -7.7720    7.2336   -0.0348 C.ar    1  LIG1       -0.0291
     28 C          -7.6067    4.8317   -0.0543 C.ar    1  LIG1        0.0281
     29 C          -9.1618    7.1800   -0.0410 C.ar    1  LIG1        0.0287
     30 H          -7.2956    8.2071   -0.0365 H       1  LIG1        0.0643
     31 C          -9.0025    4.7738   -0.0755 C.ar    1  LIG1       -0.0085
     32 C          -9.7740    5.9233   -0.0650 C.ar    1  LIG1        0.1254
     33 H          -9.4870    3.8049   -0.0849 H       1  LIG1        0.0661
     34 N          -5.5849    6.2106    0.0087 N.pl3   1  LIG1       -0.3574
     35 H          -5.0870    5.4643   -0.4562 H       1  LIG1        0.1423
     36 H          -5.2378    7.1323   -0.2131 H       1  LIG1        0.1423
     37 O         -11.1489    5.8722   -0.0886 O.3     1  LIG1       -0.5061
     38 H         -11.4510    4.9770    0.0966 H       1  LIG1        0.2922
     39 C         -10.9000    8.8199   -0.9538 C.ar    1  LIG1        0.1242
     40 C          -9.9344    8.4554    0.0182 C.ar    1  LIG1        0.0286
     41 C          -9.6427    9.3718    1.0158 C.ar    1  LIG1       -0.0076
     42 C         -10.2761   10.6130    1.0301 C.ar    1  LIG1        0.1356
     43 C         -11.1846   10.8851    0.0209 C.ar    1  LIG1        0.0711
     44 N         -11.4914   10.0083   -0.9339 N.ar    1  LIG1       -0.2365
     45 H          -8.9247    9.1345    1.7912 H       1  LIG1        0.0662
     46 H         -11.6945   11.8437   -0.0210 H       1  LIG1        0.0867
     47 N         -11.2160    7.9795   -2.0108 N.pl3   1  LIG1       -0.3427
     48 H         -11.9872    8.3539   -2.5477 H       1  LIG1        0.1437
     49 H         -11.3436    7.0107   -1.7417 H       1  LIG1        0.1437
     50 O          -9.9652   11.4929    2.0287 O.3     1  LIG1       -0.5052
     51 H         -10.4758   12.3034    1.9289 H       1  LIG1        0.2922
@<TRIPOS>BOND
     1    48    47    1
     2    22    21    1
     3    23    21    1
     4    47    49    1
     5    47    39    1
     6    21    14    1
     7    39    44   ar
     8    39    40   ar
     9    44    43   ar
    10    14    19   ar
    11    14    15   ar
    12    19    18   ar
    13    13    12    1
    14    35    34    1
    15    36    34    1
    16    15     5    1
    17    15    16   ar
    18    11     9    1
    19    37    32    1
    20    37    38    1
    21     5     4   ar
    22     5     6   ar
    23    33    31    1
    24    31    32   ar
    25    31    28   ar
    26    32    29   ar
    27    18    28    1
    28    18    17   ar
    29    12     4    1
    30    28    26   ar
    31     4     3   ar
    32    26    27   ar
    33    26    34    1
    34    29    27   ar
    35    29    40    1
    36    30    27    1
    37    46    43    1
    38    10     9    1
    39     6     1   ar
    40    40    41   ar
    41    43    42   ar
    42     3     7    1
    43     3     2   ar
    44     1     2   ar
    45     1     9    1
    46     2     8    1
    47    16    17   ar
    48    16    20    1
    49    17    24    1
    50    41    42   ar
    51    41    45    1
    52    42    50    1
    53    24    25    1
    54    51    50    1
