@<TRIPOS>MOLECULE
mol_data/opt/m06hf/geoms/mol2/6hf6hf6hf-6hf.out
 50 53 0 0 0
SMALL
GASTEIGER

@<TRIPOS>ATOM
      1 C          -4.0908   -2.1231   -0.7214 C.ar    1  LIG1        0.1170
      2 C          -2.9698   -2.2541    0.1211 C.ar    1  LIG1       -0.0186
      3 C          -2.6545   -1.2059    0.9576 C.ar    1  LIG1       -0.0148
      4 C          -3.4325   -0.0451    0.9393 C.ar    1  LIG1        0.1429
      5 C          -4.5036    0.0144    0.0512 C.ar    1  LIG1        0.1177
      6 N          -4.8219   -1.0207   -0.7410 N.ar    1  LIG1       -0.2287
      7 H          -1.8200   -1.2559    1.6446 H       1  LIG1        0.0656
      8 H          -2.3916   -3.1680    0.1233 H       1  LIG1        0.0653
      9 N          -4.5058   -3.1691   -1.5347 N.pl3   1  LIG1       -0.3431
     10 H          -5.1220   -2.8717   -2.2785 H       1  LIG1        0.1437
     11 H          -3.7830   -3.8052   -1.8369 H       1  LIG1        0.1437
     12 O          -3.0994    0.9598    1.7960 O.3     1  LIG1       -0.5046
     13 H          -3.8409    1.5722    1.8886 H       1  LIG1        0.2922
     14 C          -6.7693    1.1655   -0.0915 C.ar    1  LIG1        0.1264
     15 C          -5.3481    1.2402   -0.0425 C.ar    1  LIG1        0.0470
     16 C          -4.7760    2.4986   -0.0925 C.ar    1  LIG1       -0.0055
     17 C          -5.5642    3.6574   -0.1414 C.ar    1  LIG1        0.1436
     18 C          -6.9485    3.4760   -0.1768 C.ar    1  LIG1        0.1177
     19 N          -7.5120    2.2576   -0.1524 N.ar    1  LIG1       -0.2280
     20 H          -3.6990    2.6244   -0.0881 H       1  LIG1        0.0662
     21 N          -7.4203   -0.0432   -0.0274 N.pl3   1  LIG1       -0.3426
     22 H          -8.4004    0.0156   -0.2615 H       1  LIG1        0.1437
     23 H          -6.9085   -0.8267   -0.4123 H       1  LIG1        0.1437
     24 O          -4.9400    4.8551   -0.0948 O.3     1  LIG1       -0.5046
     25 H          -5.4216    5.5006   -0.6844 H       1  LIG1        0.2922
     26 C          -7.7594    5.8088   -0.8639 C.ar    1  LIG1        0.1264
     27 C          -7.9158    4.6114   -0.1549 C.ar    1  LIG1        0.0470
     28 C          -9.0743    4.4913    0.6057 C.ar    1  LIG1       -0.0055
     29 C          -9.9635    5.5512    0.6946 C.ar    1  LIG1        0.1436
     30 C          -9.7011    6.7263   -0.0232 C.ar    1  LIG1        0.1177
     31 N          -8.6102    6.8169   -0.7833 N.ar    1  LIG1       -0.2280
     32 H          -9.2452    3.5632    1.1405 H       1  LIG1        0.0662
     33 N          -6.6376    5.9997   -1.7160 N.pl3   1  LIG1       -0.3426
     34 H          -6.5903    5.2879   -2.4432 H       1  LIG1        0.1437
     35 H          -6.6912    6.9249   -2.1332 H       1  LIG1        0.1437
     36 O         -11.0789    5.5009    1.4826 O.3     1  LIG1       -0.5046
     37 H         -11.0702    4.7089    2.0311 H       1  LIG1        0.2922
     38 C         -11.9572    7.9482   -0.1650 C.ar    1  LIG1        0.1257
     39 C         -10.5570    7.9468    0.0395 C.ar    1  LIG1        0.0469
     40 C          -9.9178    9.1666    0.2055 C.ar    1  LIG1       -0.0061
     41 C         -10.6553   10.3449    0.1885 C.ar    1  LIG1        0.1356
     42 C         -12.0241   10.2447   -0.0146 C.ar    1  LIG1        0.0711
     43 N         -12.6491    9.0836   -0.1823 N.ar    1  LIG1       -0.2364
     44 H          -8.8439    9.2071    0.3350 H       1  LIG1        0.0662
     45 H         -12.6447   11.1361   -0.0442 H       1  LIG1        0.0867
     46 N         -12.6676    6.7914   -0.4469 N.pl3   1  LIG1       -0.3426
     47 H         -13.6597    6.9838   -0.4913 H       1  LIG1        0.1437
     48 H         -12.4338    5.9991    0.1379 H       1  LIG1        0.1437
     49 O         -10.0019   11.5318    0.3613 O.3     1  LIG1       -0.5052
     50 H         -10.6258   12.2649    0.3298 H       1  LIG1        0.2922
@<TRIPOS>BOND
     1    34    33    1
     2    10     9    1
     3    35    33    1
     4    11     9    1
     5    33    26    1
     6     9     1    1
     7    26    31   ar
     8    26    27   ar
     9    31    30   ar
    10     6     1   ar
    11     6     5   ar
    12     1     2   ar
    13    25    24    1
    14    47    46    1
    15    46    38    1
    16    46    48    1
    17    23    21    1
    18    22    21    1
    19    43    38   ar
    20    43    42   ar
    21    18    27    1
    22    18    19   ar
    23    18    17   ar
    24    38    39   ar
    25    27    28   ar
    26    19    14   ar
    27    17    24    1
    28    17    16   ar
    29    16    20    1
    30    16    15   ar
    31    14    15   ar
    32    14    21    1
    33    45    42    1
    34    15     5    1
    35    30    39    1
    36    30    29   ar
    37    42    41   ar
    38    39    40   ar
    39     5     4   ar
    40     2     8    1
    41     2     3   ar
    42    41    40   ar
    43    41    49    1
    44    40    44    1
    45    50    49    1
    46    28    29   ar
    47    28    32    1
    48    29    36    1
    49     4     3   ar
    50     4    12    1
    51     3     7    1
    52    36    37    1
    53    12    13    1
