@<TRIPOS>MOLECULE
mol_data/opt/m06hf/geoms/mol2/6hf6hf-6hf.out
 38 40 0 0 0
SMALL
GASTEIGER

@<TRIPOS>ATOM
      1 C          -4.4305   -2.1485   -0.1975 C.ar    1  LIG1        0.1170
      2 C          -3.0601   -2.1962    0.1341 C.ar    1  LIG1       -0.0186
      3 C          -2.4067   -1.0092    0.3662 C.ar    1  LIG1       -0.0148
      4 C          -3.0974    0.2121    0.2912 C.ar    1  LIG1        0.1429
      5 C          -4.4512    0.1558   -0.0494 C.ar    1  LIG1        0.1177
      6 N          -5.0853   -1.0070   -0.2832 N.ar    1  LIG1       -0.2287
      7 H          -1.3589   -0.9764    0.6333 H       1  LIG1        0.0656
      8 H          -2.5499   -3.1469    0.2132 H       1  LIG1        0.0653
      9 N          -5.1589   -3.3162   -0.3985 N.pl3   1  LIG1       -0.3431
     10 H          -6.0454   -3.1475   -0.8538 H       1  LIG1        0.1437
     11 H          -4.6447   -4.0913   -0.7905 H       1  LIG1        0.1437
     12 O          -2.4262    1.3420    0.6025 O.3     1  LIG1       -0.5046
     13 H          -2.7405    2.0867    0.0177 H       1  LIG1        0.2922
     14 C          -4.9598    2.6110   -0.5932 C.ar    1  LIG1        0.1264
     15 C          -5.3313    1.3603   -0.0846 C.ar    1  LIG1        0.0470
     16 C          -6.6288    1.2558    0.4057 C.ar    1  LIG1       -0.0055
     17 C          -7.4529    2.3701    0.4434 C.ar    1  LIG1        0.1436
     18 C          -6.9753    3.5907   -0.0503 C.ar    1  LIG1        0.1177
     19 N          -5.7459    3.6731   -0.5588 N.ar    1  LIG1       -0.2280
     20 H          -6.9630    0.2927    0.7764 H       1  LIG1        0.0662
     21 N          -3.6746    2.7982   -1.1718 N.pl3   1  LIG1       -0.3426
     22 H          -3.5169    2.1642   -1.9533 H       1  LIG1        0.1437
     23 H          -3.5848    3.7632   -1.4773 H       1  LIG1        0.1437
     24 O          -8.7123    2.3254    0.9729 O.3     1  LIG1       -0.5046
     25 H          -8.8644    1.4817    1.4124 H       1  LIG1        0.2922
     26 C          -9.0687    5.0079   -0.5023 C.ar    1  LIG1        0.1257
     27 C          -7.7515    4.8640   -0.0049 C.ar    1  LIG1        0.0469
     28 C          -7.0991    5.9954    0.4608 C.ar    1  LIG1       -0.0061
     29 C          -7.7468    7.2257    0.4443 C.ar    1  LIG1        0.1356
     30 C          -9.0359    7.2680   -0.0663 C.ar    1  LIG1        0.0711
     31 N          -9.6725    6.1921   -0.5193 N.ar    1  LIG1       -0.2364
     32 H          -6.0822    5.9285    0.8252 H       1  LIG1        0.0662
     33 H          -9.5811    8.2068   -0.1120 H       1  LIG1        0.0867
     34 N          -9.7623    3.9525   -1.0755 N.pl3   1  LIG1       -0.3426
     35 H         -10.7056    4.2317   -1.3116 H       1  LIG1        0.1437
     36 H          -9.7133    3.0857   -0.5548 H       1  LIG1        0.1437
     37 O          -7.0855    8.3216    0.9210 O.3     1  LIG1       -0.5052
     38 H          -7.6428    9.1044    0.8536 H       1  LIG1        0.2922
@<TRIPOS>BOND
     1    22    21    1
     2    23    21    1
     3    35    34    1
     4    21    14    1
     5    34    36    1
     6    34    26    1
     7    10     9    1
     8    11     9    1
     9    14    19   ar
    10    14    15   ar
    11    19    18   ar
    12    31    26   ar
    13    31    30   ar
    14    26    27   ar
    15     9     1    1
    16     6     1   ar
    17     6     5   ar
    18     1     2   ar
    19    33    30    1
    20    15     5    1
    21    15    16   ar
    22    30    29   ar
    23    18    27    1
    24    18    17   ar
    25     5     4   ar
    26    27    28   ar
    27    13    12    1
    28     2     8    1
    29     2     3   ar
    30     4     3   ar
    31     4    12    1
    32     3     7    1
    33    16    17   ar
    34    16    20    1
    35    17    24    1
    36    29    28   ar
    37    29    37    1
    38    28    32    1
    39    38    37    1
    40    24    25    1
