@<TRIPOS>MOLECULE
mol_data/opt/m06hf/geoms/mol2/6hf6hf-6hf-6hf-.out
 50 53 0 0 0
SMALL
GASTEIGER

@<TRIPOS>ATOM
      1 C          -4.5064   -2.2768   -0.0531 C.ar    1  LIG1        0.1170
      2 C          -3.1073   -2.3669    0.1088 C.ar    1  LIG1       -0.0186
      3 C          -2.3816   -1.2006    0.1509 C.ar    1  LIG1       -0.0148
      4 C          -3.0270    0.0438    0.0538 C.ar    1  LIG1        0.1429
      5 C          -4.4139    0.0289   -0.1087 C.ar    1  LIG1        0.1177
      6 N          -5.1203   -1.1143   -0.1580 N.ar    1  LIG1       -0.2287
      7 H          -1.3078   -1.1997    0.2836 H       1  LIG1        0.0656
      8 H          -2.6307   -3.3329    0.2092 H       1  LIG1        0.0653
      9 N          -5.2989   -3.4178   -0.0565 N.pl3   1  LIG1       -0.3431
     10 H          -6.2317   -3.2485   -0.4062 H       1  LIG1        0.1437
     11 H          -4.8697   -4.2529   -0.4266 H       1  LIG1        0.1437
     12 O          -2.2770    1.1610    0.1818 O.3     1  LIG1       -0.5046
     13 H          -2.6255    1.8686   -0.4232 H       1  LIG1        0.2922
     14 C          -4.8886    2.4463   -0.8105 C.ar    1  LIG1        0.1264
     15 C          -5.2389    1.2714   -0.1385 C.ar    1  LIG1        0.0470
     16 C          -6.4594    1.2859    0.5291 C.ar    1  LIG1       -0.0055
     17 C          -7.2286    2.4387    0.5739 C.ar    1  LIG1        0.1436
     18 C          -6.7666    3.5912   -0.0861 C.ar    1  LIG1        0.1177
     19 N          -5.6172    3.5494   -0.7654 N.ar    1  LIG1       -0.2280
     20 H          -6.7822    0.3776    1.0266 H       1  LIG1        0.0662
     21 N          -3.6924    2.5050   -1.5731 N.pl3   1  LIG1       -0.3426
     22 H          -3.6529    1.7661   -2.2730 H       1  LIG1        0.1437
     23 H          -3.6077    3.4146   -2.0164 H       1  LIG1        0.1437
     24 O          -8.4108    2.4861    1.2506 O.3     1  LIG1       -0.5046
     25 H          -8.5030    1.7080    1.8110 H       1  LIG1        0.2922
     26 C          -6.8741    6.1309   -0.0552 C.ar    1  LIG1        0.1264
     27 C          -7.5235    4.8718   -0.0758 C.ar    1  LIG1        0.0470
     28 C          -8.9129    4.8863   -0.0966 C.ar    1  LIG1       -0.0055
     29 C          -9.6210    6.0800   -0.0722 C.ar    1  LIG1        0.1436
     30 C          -8.9036    7.2813   -0.0385 C.ar    1  LIG1        0.1177
     31 N          -7.5677    7.2649   -0.0335 N.ar    1  LIG1       -0.2280
     32 H          -9.4541    3.9484   -0.1198 H       1  LIG1        0.0662
     33 N          -5.5082    6.2565   -0.0032 N.pl3   1  LIG1       -0.3426
     34 H          -4.9834    5.4929   -0.4034 H       1  LIG1        0.1437
     35 H          -5.1793    7.1907   -0.1961 H       1  LIG1        0.1437
     36 O         -10.9927    6.0974   -0.0880 O.3     1  LIG1       -0.5046
     37 H         -11.3332    5.2730    0.2745 H       1  LIG1        0.2922
     38 C          -9.0287    9.7084    0.6993 C.ar    1  LIG1        0.1257
     39 C          -9.5747    8.6100   -0.0130 C.ar    1  LIG1        0.0469
     40 C         -10.7635    8.8184   -0.7085 C.ar    1  LIG1       -0.0061
     41 C         -11.3831   10.0590   -0.6743 C.ar    1  LIG1        0.1356
     42 C         -10.7777   11.0671    0.0657 C.ar    1  LIG1        0.0711
     43 N          -9.6388   10.8956    0.7218 N.ar    1  LIG1       -0.2364
     44 H         -11.2030    8.0002   -1.2664 H       1  LIG1        0.0662
     45 H         -11.2418   12.0452    0.1123 H       1  LIG1        0.0867
     46 N          -7.8827    9.6067    1.4471 N.pl3   1  LIG1       -0.3426
     47 H          -7.2136    8.9171    1.1362 H       1  LIG1        0.1437
     48 H          -7.5334   10.4967    1.7684 H       1  LIG1        0.1437
     49 O         -12.5489   10.3478   -1.3333 O.3     1  LIG1       -0.5052
     50 H         -12.9270    9.5416   -1.6981 H       1  LIG1        0.2922
@<TRIPOS>BOND
     1    22    21    1
     2    23    21    1
     3    50    49    1
     4    21    14    1
     5    49    41    1
     6    44    40    1
     7    14    19   ar
     8    14    15   ar
     9    19    18   ar
    10    40    41   ar
    11    40    39   ar
    12    41    42   ar
    13    11     9    1
    14    13    12    1
    15    10     9    1
    16    34    33    1
    17    35    33    1
    18     6     5   ar
    19     6     1   ar
    20    15     5    1
    21    15    16   ar
    22    32    28    1
    23     5     4   ar
    24    28    27   ar
    25    28    29   ar
    26    36    29    1
    27    36    37    1
    28    18    27    1
    29    18    17   ar
    30    27    26   ar
    31    29    30   ar
    32     9     1    1
    33    26    31   ar
    34    26    33    1
    35     1     2   ar
    36    30    31   ar
    37    30    39    1
    38    39    38   ar
    39     4     3   ar
    40     4    12    1
    41    42    45    1
    42    42    43   ar
    43     2     3   ar
    44     2     8    1
    45     3     7    1
    46    16    17   ar
    47    16    20    1
    48    17    24    1
    49    38    43   ar
    50    38    46    1
    51    47    46    1
    52    24    25    1
    53    46    48    1
