@<TRIPOS>MOLECULE
mol_data/opt/m06hf/geoms/mol2/6hf6hf6hf6hf.out
 50 53 0 0 0
SMALL
GASTEIGER

@<TRIPOS>ATOM
      1 C          -3.8038   -1.8882   -1.1853 C.ar    1  LIG1        0.1170
      2 C          -2.8942   -2.1986   -0.1550 C.ar    1  LIG1       -0.0186
      3 C          -2.8563   -1.3796    0.9519 C.ar    1  LIG1       -0.0148
      4 C          -3.6949   -0.2635    1.0183 C.ar    1  LIG1        0.1429
      5 C          -4.5384   -0.0101   -0.0595 C.ar    1  LIG1        0.1177
      6 N          -4.5938   -0.8286   -1.1209 N.ar    1  LIG1       -0.2287
      7 H          -2.1978   -1.5783    1.7872 H       1  LIG1        0.0656
      8 H          -2.2634   -3.0739   -0.2287 H       1  LIG1        0.0653
      9 N          -3.9435   -2.7094   -2.2936 N.pl3   1  LIG1       -0.3431
     10 H          -4.4078   -2.2581   -3.0693 H       1  LIG1        0.1437
     11 H          -3.1307   -3.2463   -2.5566 H       1  LIG1        0.1437
     12 O          -3.6376    0.5146    2.1362 O.3     1  LIG1       -0.5046
     13 H          -4.4500    1.0307    2.2192 H       1  LIG1        0.2922
     14 C          -6.7923    1.0993   -0.4562 C.ar    1  LIG1        0.1264
     15 C          -5.4280    1.1874   -0.0657 C.ar    1  LIG1        0.0470
     16 C          -4.9527    2.4297    0.3215 C.ar    1  LIG1       -0.0055
     17 C          -5.7958    3.5412    0.3341 C.ar    1  LIG1        0.1436
     18 C          -7.1168    3.3639   -0.0690 C.ar    1  LIG1        0.1177
     19 N          -7.5846    2.1625   -0.4342 N.ar    1  LIG1       -0.2280
     20 H          -3.9189    2.5633    0.6199 H       1  LIG1        0.0662
     21 N          -7.3515   -0.0975   -0.8254 N.pl3   1  LIG1       -0.3426
     22 H          -8.2507   -0.0069   -1.2747 H       1  LIG1        0.1437
     23 H          -6.7083   -0.7660   -1.2301 H       1  LIG1        0.1437
     24 O          -5.2746    4.7330    0.7443 O.3     1  LIG1       -0.5046
     25 H          -5.9859    5.3211    1.0291 H       1  LIG1        0.2922
     26 C          -9.3878    4.3982    0.4132 C.ar    1  LIG1        0.1264
     27 C          -8.0664    4.5132   -0.0971 C.ar    1  LIG1        0.0470
     28 C          -7.6815    5.7434   -0.6080 C.ar    1  LIG1       -0.0055
     29 C          -8.5653    6.8221   -0.6007 C.ar    1  LIG1        0.1436
     30 C          -9.8417    6.6182   -0.0821 C.ar    1  LIG1        0.1177
     31 N         -10.2160    5.4341    0.4186 N.ar    1  LIG1       -0.2280
     32 H          -6.6917    5.8894   -1.0257 H       1  LIG1        0.0662
     33 N          -9.8413    3.2250    0.9624 N.pl3   1  LIG1       -0.3426
     34 H         -10.8408    3.2017    1.1010 H       1  LIG1        0.1437
     35 H          -9.4150    2.3859    0.5898 H       1  LIG1        0.1437
     36 O          -8.1267    8.0151   -1.0943 O.3     1  LIG1       -0.5046
     37 H          -8.7009    8.7259   -0.7805 H       1  LIG1        0.2922
     38 C         -11.6119    8.0026    1.0990 C.ar    1  LIG1        0.1257
     39 C         -10.8385    7.7272   -0.0603 C.ar    1  LIG1        0.0469
     40 C         -11.0396    8.5204   -1.1820 C.ar    1  LIG1       -0.0061
     41 C         -11.9495    9.5751   -1.1321 C.ar    1  LIG1        0.1356
     42 C         -12.6295    9.7840    0.0575 C.ar    1  LIG1        0.0711
     43 N         -12.4715    9.0150    1.1328 N.ar    1  LIG1       -0.2364
     44 H         -10.5071    8.3264   -2.1062 H       1  LIG1        0.0662
     45 H         -13.3428   10.5981    0.1491 H       1  LIG1        0.0867
     46 N         -11.4650    7.2612    2.2454 N.pl3   1  LIG1       -0.3426
     47 H         -12.1769    7.4461    2.9365 H       1  LIG1        0.1437
     48 H         -11.2034    6.2941    2.1052 H       1  LIG1        0.1437
     49 O         -12.1207   10.3399   -2.2507 O.3     1  LIG1       -0.5052
     50 H         -12.7848   11.0200   -2.0954 H       1  LIG1        0.2922
@<TRIPOS>BOND
     1    10     9    1
     2    11     9    1
     3     9     1    1
     4    49    50    1
     5    49    41    1
     6    44    40    1
     7    22    21    1
     8    23    21    1
     9     1     6   ar
    10     1     2   ar
    11    40    41   ar
    12    40    39   ar
    13    41    42   ar
    14     6     5   ar
    15    36    37    1
    16    36    29    1
    17    32    28    1
    18    21    14    1
    19    28    29   ar
    20    28    27   ar
    21    29    30   ar
    22    14    19   ar
    23    14    15   ar
    24    19    18   ar
    25     8     2    1
    26     2     3   ar
    27    27    18    1
    28    27    26   ar
    29    30    39    1
    30    30    31   ar
    31    18    17   ar
    32    15     5    1
    33    15    16   ar
    34    39    38   ar
    35     5     4   ar
    36    42    45    1
    37    42    43   ar
    38    16    17   ar
    39    16    20    1
    40    17    24    1
    41    26    31   ar
    42    26    33    1
    43    35    33    1
    44    24    25    1
    45     3     4   ar
    46     3     7    1
    47    33    34    1
    48     4    12    1
    49    38    43   ar
    50    38    46    1
    51    48    46    1
    52    12    13    1
    53    46    47    1
