@<TRIPOS>MOLECULE
mol_data/opt/m06hf/geoms/mol2/6hg.out
 14 14 0 0 0
SMALL
GASTEIGER

@<TRIPOS>ATOM
      1 C          -4.5956   -2.0511   -0.0948 C.ar    1  LIG1        0.1162
      2 C          -3.1928   -1.9709    0.0106 C.ar    1  LIG1       -0.0211
      3 C          -2.6042   -0.7234   -0.0398 C.ar    1  LIG1       -0.0439
      4 C          -3.4050    0.4141   -0.1812 C.ar    1  LIG1        0.0230
      5 C          -4.7780    0.2216   -0.2885 C.ar    1  LIG1        0.0428
      6 N          -5.3632   -0.9722   -0.2455 N.ar    1  LIG1       -0.2396
      7 H          -1.5290   -0.6179    0.0293 H       1  LIG1        0.0630
      8 H          -2.6017   -2.8684    0.1311 H       1  LIG1        0.0652
      9 H          -5.4330    1.0749   -0.4207 H       1  LIG1        0.0841
     10 N          -5.2481   -3.2557   -0.0140 N.pl3   1  LIG1       -0.3431
     11 H          -6.2160   -3.2309   -0.2971 H       1  LIG1        0.1437
     12 H          -4.7364   -4.0940   -0.2361 H       1  LIG1        0.1437
     13 S          -2.7013    2.0496   -0.3001 S.3     1  LIG1       -0.1412
     14 H          -2.7684    2.3547    1.0029 H       1  LIG1        0.1072
@<TRIPOS>BOND
     1     9     5    1
     2    13     4    1
     3    13    14    1
     4    11    10    1
     5     5     6   ar
     6     5     4   ar
     7     6     1   ar
     8    12    10    1
     9     4     3   ar
    10     1    10    1
    11     1     2   ar
    12     3     2   ar
    13     3     7    1
    14     2     8    1
