@<TRIPOS>MOLECULE
mol_data/opt/m06hf/geoms/mol2/6hh.out
 15 15 0 0 0
SMALL
GASTEIGER

@<TRIPOS>ATOM
      1 C          -4.5645   -2.0444   -0.0581 C.ar    1  LIG1        0.1162
      2 C          -3.1609   -2.0307   -0.0172 C.ar    1  LIG1       -0.0204
      3 C          -2.5085   -0.8130   -0.0126 C.ar    1  LIG1       -0.0363
      4 C          -3.2486    0.3746   -0.0479 C.ar    1  LIG1        0.0430
      5 C          -4.6341    0.2453   -0.0795 C.ar    1  LIG1        0.0503
      6 N          -5.2727   -0.9241   -0.0876 N.ar    1  LIG1       -0.2389
      7 H          -1.4267   -0.7719    0.0333 H       1  LIG1        0.0637
      8 H          -2.6080   -2.9592    0.0273 H       1  LIG1        0.0652
      9 H          -5.2604    1.1312   -0.1010 H       1  LIG1        0.0849
     10 N          -5.2758   -3.2426   -0.0193 N.pl3   1  LIG1       -0.3431
     11 H          -6.2483   -3.1136   -0.2632 H       1  LIG1        0.1437
     12 H          -4.8426   -4.0191   -0.4985 H       1  LIG1        0.1437
     13 N          -2.6191    1.6322    0.0081 N.pl3   1  LIG1       -0.3568
     14 H          -1.7518    1.6712   -0.5116 H       1  LIG1        0.1424
     15 H          -3.2257    2.3965   -0.2593 H       1  LIG1        0.1424
@<TRIPOS>BOND
     1    14    13    1
     2    12    10    1
     3    11    10    1
     4    15    13    1
     5     9     5    1
     6     6     5   ar
     7     6     1   ar
     8     5     4   ar
     9     1    10    1
    10     1     2   ar
    11     4     3   ar
    12     4    13    1
    13     2     3   ar
    14     2     8    1
    15     3     7    1
