@<TRIPOS>MOLECULE
mol_data/opt/m06hf/geoms/mol2/6hh13fl-12aa6ai.out
 47 50 0 0 0
SMALL
GASTEIGER

@<TRIPOS>ATOM
      1 C          -4.4488   -2.0466    0.3031 C.ar    1  LIG1        0.1170
      2 C          -3.0613   -2.1550    0.0885 C.ar    1  LIG1       -0.0203
      3 C          -2.3668   -0.9954   -0.1898 C.ar    1  LIG1       -0.0357
      4 C          -3.0167    0.2378   -0.2061 C.ar    1  LIG1        0.0526
      5 C          -4.3838    0.2557    0.0893 C.ar    1  LIG1        0.1134
      6 N          -5.0725   -0.8766    0.2965 N.ar    1  LIG1       -0.2290
      7 H          -1.3048   -1.0395   -0.4053 H       1  LIG1        0.0638
      8 H          -2.5691   -3.1159    0.1307 H       1  LIG1        0.0652
      9 N          -5.2145   -3.1556    0.5798 N.pl3   1  LIG1       -0.3431
     10 H          -6.2108   -2.9993    0.5489 H       1  LIG1        0.1437
     11 H          -4.8961   -4.0480    0.2387 H       1  LIG1        0.1437
     12 N          -2.3390    1.4563   -0.5548 N.pl3   1  LIG1       -0.3563
     13 H          -1.3340    1.3668   -0.4355 H       1  LIG1        0.1424
     14 H          -2.5285    1.7063   -1.5251 H       1  LIG1        0.1424
     15 C          -5.1891    1.4789    0.1515 C.ar    1  LIG1        0.1131
     16 C          -4.9058    2.8329    0.3347 C.ar    1  LIG1        0.1867
     17 C          -6.1513    3.5101    0.3710 C.ar    1  LIG1        0.1904
     18 C          -7.1478    2.5595    0.2299 C.ar    1  LIG1        0.1285
     19 N          -6.5529    1.3498    0.1074 N.ar    1  LIG1       -0.3446
     20 H          -7.0050    0.4483    0.0681 H       1  LIG1        0.1663
     21 O          -3.7146    3.4480    0.4942 O.3     1  LIG1       -0.5019
     22 H          -3.0166    2.7891    0.2324 H       1  LIG1        0.2924
     23 O          -6.3729    4.8414    0.5514 O.3     1  LIG1       -0.4894
     24 C          -5.6784    5.6681   -0.3820 C.3     1  LIG1        0.0791
     25 H          -5.9464    6.6933   -0.1372 H       1  LIG1        0.0660
     26 H          -4.6035    5.5196   -0.2816 H       1  LIG1        0.0660
     27 H          -5.9992    5.4279   -1.3983 H       1  LIG1        0.0660
     28 C          -8.5856    2.7360    0.2175 C.ar    1  LIG1        0.1555
     29 C          -9.3888    3.8202    0.3972 C.ar    1  LIG1       -0.0137
     30 C         -10.7312    3.3356    0.2598 C.ar    1  LIG1       -0.0152
     31 C         -10.6397    1.9993    0.0119 C.ar    1  LIG1        0.1372
     32 O          -9.3336    1.6333   -0.0156 O.2     1  LIG1       -0.4532
     33 H          -9.0469    4.8184    0.6064 H       1  LIG1        0.0656
     34 H         -11.6377    3.9123    0.3317 H       1  LIG1        0.0656
     35 C         -11.2189   -0.3401   -0.6057 C.ar    1  LIG1        0.0382
     36 C         -11.6287    0.9433   -0.2242 C.ar    1  LIG1        0.0356
     37 C         -12.9960    1.1722   -0.0806 C.ar    1  LIG1       -0.0453
     38 C         -13.8979    0.1400   -0.3208 C.ar    1  LIG1       -0.0317
     39 C         -13.3691   -1.0966   -0.6916 C.ar    1  LIG1        0.0305
     40 N         -12.0666   -1.3358   -0.8307 N.ar    1  LIG1       -0.2623
     41 H         -13.3589    2.1474    0.2236 H       1  LIG1        0.0628
     42 H         -14.0323   -1.9330   -0.8841 H       1  LIG1        0.0832
     43 H         -10.1654   -0.5548   -0.7308 H       1  LIG1        0.0837
     44 C         -15.3929    0.3510   -0.1864 C.3     1  LIG1       -0.0383
     45 H         -15.9248   -0.5880   -0.3355 H       1  LIG1        0.0278
     46 H         -15.7414    1.0695   -0.9298 H       1  LIG1        0.0278
     47 H         -15.6350    0.7350    0.8054 H       1  LIG1        0.0278
@<TRIPOS>BOND
     1    14    12    1
     2    27    24    1
     3    46    44    1
     4    42    39    1
     5    40    39   ar
     6    40    35   ar
     7    43    35    1
     8    39    38   ar
     9    35    36   ar
    10    12    13    1
    11    12     4    1
    12     7     3    1
    13    24    26    1
    14    24    25    1
    15    24    23    1
    16    45    44    1
    17    38    44    1
    18    38    37   ar
    19    36    37   ar
    20    36    31    1
    21     4     3   ar
    22     4     5   ar
    23     3     2   ar
    24    44    47    1
    25    37    41    1
    26    32    31   ar
    27    32    28   ar
    28    31    30   ar
    29    20    19    1
    30     2     8    1
    31     2     1   ar
    32     5    15    1
    33     5     6   ar
    34    19    15   ar
    35    19    18   ar
    36    15    16   ar
    37    28    18    1
    38    28    29   ar
    39    18    17   ar
    40    22    21    1
    41    11     9    1
    42    30    34    1
    43    30    29   ar
    44     6     1   ar
    45     1     9    1
    46    16    17   ar
    47    16    21    1
    48    17    23    1
    49    29    33    1
    50    10     9    1
