@<TRIPOS>MOLECULE
mol_data/opt/m06hf/geoms/mol2/6hh6hh6hh6hh.out
 54 57 0 0 0
SMALL
GASTEIGER

@<TRIPOS>ATOM
      1 C          -3.8761   -1.8793    1.1645 C.ar    1  LIG1        0.1169
      2 C          -2.8744   -2.1810    0.2254 C.ar    1  LIG1       -0.0203
      3 C          -2.7353   -1.3546   -0.8681 C.ar    1  LIG1       -0.0357
      4 C          -3.5504   -0.2237   -1.0184 C.ar    1  LIG1        0.0511
      5 C          -4.4816    0.0228   -0.0036 C.ar    1  LIG1        0.0970
      6 N          -4.6458   -0.8116    1.0331 N.ar    1  LIG1       -0.2305
      7 H          -1.9861   -1.5718   -1.6208 H       1  LIG1        0.0638
      8 H          -2.2359   -3.0429    0.3644 H       1  LIG1        0.0652
      9 N          -4.0588   -2.6650    2.2951 N.pl3   1  LIG1       -0.3431
     10 H          -4.9029   -2.4435    2.8042 H       1  LIG1        0.1437
     11 H          -3.8939   -3.6538    2.1813 H       1  LIG1        0.1437
     12 N          -3.4007    0.6278   -2.1283 N.pl3   1  LIG1       -0.3563
     13 H          -2.9959    0.1572   -2.9283 H       1  LIG1        0.1424
     14 H          -4.2663    1.0905   -2.3852 H       1  LIG1        0.1424
     15 C          -6.7426    1.1616    0.2361 C.ar    1  LIG1        0.1263
     16 C          -5.3560    1.2323   -0.0396 C.ar    1  LIG1        0.0435
     17 C          -4.8310    2.4768   -0.3520 C.ar    1  LIG1       -0.0264
     18 C          -5.6379    3.6172   -0.4091 C.ar    1  LIG1        0.0518
     19 C          -6.9962    3.4410   -0.1234 C.ar    1  LIG1        0.0970
     20 N          -7.5090    2.2414    0.1747 N.ar    1  LIG1       -0.2298
     21 H          -3.7706    2.5583   -0.5699 H       1  LIG1        0.0644
     22 N          -7.3618   -0.0361    0.5277 N.pl3   1  LIG1       -0.3426
     23 H          -8.2805    0.0872    0.9295 H       1  LIG1        0.1437
     24 H          -6.7627   -0.6994    1.0026 H       1  LIG1        0.1437
     25 N          -5.0870    4.8772   -0.7117 N.pl3   1  LIG1       -0.3563
     26 H          -4.1994    4.8089   -1.1938 H       1  LIG1        0.1424
     27 H          -5.7294    5.4749   -1.2208 H       1  LIG1        0.1424
     28 C          -9.2155    4.4904   -0.7713 C.ar    1  LIG1        0.1263
     29 C          -7.9491    4.5890   -0.1447 C.ar    1  LIG1        0.0435
     30 C          -7.6241    5.7978    0.4517 C.ar    1  LIG1       -0.0264
     31 C          -8.5029    6.8844    0.4228 C.ar    1  LIG1        0.0518
     32 C          -9.7285    6.6878   -0.2235 C.ar    1  LIG1        0.0970
     33 N         -10.0454    5.5238   -0.8032 N.ar    1  LIG1       -0.2298
     34 H          -6.6597    5.8995    0.9390 H       1  LIG1        0.0644
     35 N          -9.6151    3.3392   -1.4175 N.pl3   1  LIG1       -0.3426
     36 H         -10.6054    3.3278   -1.6161 H       1  LIG1        0.1437
     37 H          -9.2388    2.4891   -1.0155 H       1  LIG1        0.1437
     38 N          -8.1664    8.1026    1.0453 N.pl3   1  LIG1       -0.3563
     39 H          -7.1674    8.2137    1.1661 H       1  LIG1        0.1424
     40 H          -8.5634    8.9048    0.5683 H       1  LIG1        0.1424
     41 C         -11.4378    8.0603   -1.5002 C.ar    1  LIG1        0.1255
     42 C         -10.7496    7.7739   -0.2972 C.ar    1  LIG1        0.0434
     43 C         -11.0689    8.5216    0.8299 C.ar    1  LIG1       -0.0270
     44 C         -12.0157    9.5455    0.7601 C.ar    1  LIG1        0.0437
     45 C         -12.6094    9.7573   -0.4811 C.ar    1  LIG1        0.0503
     46 N         -12.3359    9.0385   -1.5656 N.ar    1  LIG1       -0.2382
     47 H         -10.5686    8.3029    1.7675 H       1  LIG1        0.0644
     48 H         -13.3539   10.5383   -0.6003 H       1  LIG1        0.0849
     49 N         -11.1689    7.3760   -2.6686 N.pl3   1  LIG1       -0.3426
     50 H         -11.8573    7.5549   -3.3855 H       1  LIG1        0.1437
     51 H         -10.9131    6.4061   -2.5331 H       1  LIG1        0.1437
     52 N         -12.3984   10.2825    1.8980 N.pl3   1  LIG1       -0.3568
     53 H         -11.6685   10.3509    2.5951 H       1  LIG1        0.1424
     54 H         -12.7638   11.1998    1.6766 H       1  LIG1        0.1424
@<TRIPOS>BOND
     1    50    49    1
     2    13    12    1
     3    49    51    1
     4    49    41    1
     5    14    12    1
     6    12     4    1
     7     7     3    1
     8    36    35    1
     9    46    41   ar
    10    46    45   ar
    11    41    42   ar
    12    35    37    1
    13    35    28    1
    14    27    25    1
    15    26    25    1
    16     4     3   ar
    17     4     5   ar
    18     3     2   ar
    19    33    28   ar
    20    33    32   ar
    21    28    29   ar
    22    25    18    1
    23    48    45    1
    24    21    17    1
    25    45    44   ar
    26    18    17   ar
    27    18    19   ar
    28    17    16   ar
    29    42    32    1
    30    42    43   ar
    31    32    31   ar
    32    29    19    1
    33    29    30   ar
    34    19    20   ar
    35    16     5    1
    36    16    15   ar
    37     5     6   ar
    38    20    15   ar
    39     2     8    1
    40     2     1   ar
    41    15    22    1
    42    31    30   ar
    43    31    38    1
    44    30    34    1
    45    22    23    1
    46    22    24    1
    47    40    38    1
    48    44    43   ar
    49    44    52    1
    50    43    47    1
    51     6     1   ar
    52    38    39    1
    53     1     9    1
    54    54    52    1
    55    52    53    1
    56    11     9    1
    57     9    10    1
