@<TRIPOS>MOLECULE
mol_data/opt/m06hf/geoms/mol2/6hh6hh6hh.out
 41 43 0 0 0
SMALL
GASTEIGER

@<TRIPOS>ATOM
      1 C          -4.2046   -1.9875    0.8601 C.ar    1  LIG1        0.1169
      2 C          -2.9733   -2.1239    0.1970 C.ar    1  LIG1       -0.0203
      3 C          -2.5689   -1.1089   -0.6427 C.ar    1  LIG1       -0.0357
      4 C          -3.3520    0.0432   -0.8008 C.ar    1  LIG1        0.0511
      5 C          -4.5346    0.1103   -0.0565 C.ar    1  LIG1        0.0970
      6 N          -4.9468   -0.9014    0.7207 N.ar    1  LIG1       -0.2305
      7 H          -1.6334   -1.1925   -1.1837 H       1  LIG1        0.0638
      8 H          -2.3659   -3.0059    0.3469 H       1  LIG1        0.0652
      9 N          -4.6637   -2.9679    1.7310 N.pl3   1  LIG1       -0.3431
     10 H          -5.6229   -2.8294    2.0164 H       1  LIG1        0.1437
     11 H          -4.4419   -3.9209    1.4845 H       1  LIG1        0.1437
     12 N          -2.9334    1.0873   -1.6453 N.pl3   1  LIG1       -0.3563
     13 H          -2.3142    0.7719   -2.3813 H       1  LIG1        0.1424
     14 H          -3.7102    1.6151   -2.0290 H       1  LIG1        0.1424
     15 C          -6.8109    1.2292   -0.2313 C.ar    1  LIG1        0.1263
     16 C          -5.4047    1.3224   -0.1016 C.ar    1  LIG1        0.0435
     17 C          -4.8550    2.5921   -0.0070 C.ar    1  LIG1       -0.0264
     18 C          -5.6539    3.7381   -0.0563 C.ar    1  LIG1        0.0518
     19 C          -7.0330    3.5392   -0.1872 C.ar    1  LIG1        0.0970
     20 N          -7.5677    2.3165   -0.2814 N.ar    1  LIG1       -0.2298
     21 H          -3.7791    2.6912    0.0957 H       1  LIG1        0.0644
     22 N          -7.4466    0.0108   -0.3605 N.pl3   1  LIG1       -0.3426
     23 H          -8.4434    0.0748   -0.2083 H       1  LIG1        0.1437
     24 H          -6.9788   -0.7455    0.1227 H       1  LIG1        0.1437
     25 N          -5.0841    5.0214    0.0525 N.pl3   1  LIG1       -0.3563
     26 H          -4.1106    5.0388   -0.2244 H       1  LIG1        0.1424
     27 H          -5.6140    5.7258   -0.4494 H       1  LIG1        0.1424
     28 C          -9.0195    4.7549   -1.1899 C.ar    1  LIG1        0.1255
     29 C          -7.9816    4.6910   -0.2299 C.ar    1  LIG1        0.0434
     30 C          -7.8827    5.7236    0.6943 C.ar    1  LIG1       -0.0270
     31 C          -8.7637    6.8065    0.6471 C.ar    1  LIG1        0.0437
     32 C          -9.7262    6.7789   -0.3582 C.ar    1  LIG1        0.0503
     33 N          -9.8542    5.7882   -1.2360 N.ar    1  LIG1       -0.2382
     34 H          -7.1100    5.6805    1.4551 H       1  LIG1        0.0644
     35 H         -10.4390    7.5926   -0.4496 H       1  LIG1        0.0849
     36 N          -9.1760    3.7756   -2.1509 N.pl3   1  LIG1       -0.3426
     37 H         -10.0572    3.8548   -2.6381 H       1  LIG1        0.1437
     38 H          -8.9264    2.8455   -1.8396 H       1  LIG1        0.1437
     39 N          -8.7207    7.8384    1.6047 N.pl3   1  LIG1       -0.3568
     40 H          -7.7905    8.0152    1.9613 H       1  LIG1        0.1424
     41 H          -9.1459    8.6989    1.2846 H       1  LIG1        0.1424
@<TRIPOS>BOND
     1    37    36    1
     2    13    12    1
     3    36    38    1
     4    36    28    1
     5    14    12    1
     6    12     4    1
     7    33    28   ar
     8    33    32   ar
     9    28    29   ar
    10     7     3    1
    11     4     3   ar
    12     4     5   ar
    13     3     2   ar
    14    35    32    1
    15    27    25    1
    16    22    15    1
    17    22    23    1
    18    22    24    1
    19    32    31   ar
    20    20    15   ar
    21    20    19   ar
    22    15    16   ar
    23    29    19    1
    24    29    30   ar
    25    26    25    1
    26    19    18   ar
    27    16     5    1
    28    16    17   ar
    29     5     6   ar
    30    18    17   ar
    31    18    25    1
    32    17    21    1
    33     2     8    1
    34     2     1   ar
    35    31    30   ar
    36    31    39    1
    37    30    34    1
    38     6     1   ar
    39     1     9    1
    40    41    39    1
    41    11     9    1
    42    39    40    1
    43     9    10    1
