@<TRIPOS>MOLECULE
mol_data/opt/m06hf/geoms/mol2/6hh6hf-13df4fd-13hi-4ha-4ef-.out
 87 93 0 0 0
SMALL
GASTEIGER

@<TRIPOS>ATOM
      1 C          -3.9369   -1.7542    1.2499 C.ar    1  LIG1        0.1169
      2 C          -3.1638   -2.2839    0.2020 C.ar    1  LIG1       -0.0203
      3 C          -3.1400   -1.6080   -0.9975 C.ar    1  LIG1       -0.0357
      4 C          -3.8411   -0.4028   -1.1569 C.ar    1  LIG1        0.0511
      5 C          -4.5394    0.0704   -0.0409 C.ar    1  LIG1        0.0970
      6 N          -4.5985   -0.6186    1.1095 N.ar    1  LIG1       -0.2305
      7 H          -2.5681   -2.0007   -1.8302 H       1  LIG1        0.0638
      8 H          -2.6085   -3.2013    0.3415 H       1  LIG1        0.0652
      9 N          -3.9911   -2.3804    2.4886 N.pl3   1  LIG1       -0.3431
     10 H          -4.6998   -2.0015    3.1002 H       1  LIG1        0.1437
     11 H          -3.9478   -3.3887    2.4810 H       1  LIG1        0.1437
     12 N          -3.7924    0.2925   -2.3731 N.pl3   1  LIG1       -0.3563
     13 H          -3.5830   -0.2998   -3.1658 H       1  LIG1        0.1424
     14 H          -4.6085    0.8673   -2.5488 H       1  LIG1        0.1424
     15 C          -6.5711    1.5205    0.4766 C.ar    1  LIG1        0.1264
     16 C          -5.2682    1.3723   -0.0804 C.ar    1  LIG1        0.0452
     17 C          -4.6990    2.4941   -0.6559 C.ar    1  LIG1       -0.0055
     18 C          -5.3851    3.7120   -0.7169 C.ar    1  LIG1        0.1449
     19 C          -6.6567    3.7486   -0.1570 C.ar    1  LIG1        0.1318
     20 N          -7.2184    2.6741    0.4180 N.ar    1  LIG1       -0.2266
     21 H          -3.7102    2.4479   -1.0978 H       1  LIG1        0.0662
     22 N          -7.2229    0.4615    1.0536 N.pl3   1  LIG1       -0.3426
     23 H          -8.0423    0.7252    1.5800 H       1  LIG1        0.1437
     24 H          -6.6133   -0.2326    1.4676 H       1  LIG1        0.1437
     25 O          -4.8245    4.7362   -1.4255 O.3     1  LIG1       -0.5045
     26 H          -4.6600    5.5221   -0.8864 H       1  LIG1        0.2922
     27 C          -7.5465    4.9292   -0.1827 C.ar    1  LIG1        0.0903
     28 C          -7.3604    6.3081   -0.2269 C.ar    1  LIG1        0.1205
     29 C          -8.6440    6.9158   -0.1588 C.ar    1  LIG1        0.1602
     30 C          -9.5769    5.8980   -0.0723 C.ar    1  LIG1        0.0938
     31 N          -8.8719    4.7171   -0.0866 N.ar    1  LIG1       -0.3488
     32 H          -9.2268    3.7872    0.1005 H       1  LIG1        0.1661
     33 N          -5.0908    7.5258   -0.1562 N.1     1  LIG1       -0.1907
     34 C          -6.1155    7.0051   -0.2032 C.1     1  LIG1        0.1050
     35 O          -8.8375    8.2479   -0.2144 O.3     1  LIG1       -0.5034
     36 H          -9.6353    8.4608    0.2940 H       1  LIG1        0.2923
     37 C         -11.7781    6.9070    0.6162 C.ar    1  LIG1        0.1268
     38 C         -13.1627    6.9080    0.6416 C.ar    1  LIG1       -0.0091
     39 C         -11.0452    5.9141   -0.0544 C.ar    1  LIG1        0.0446
     40 C         -13.9033    5.9040    0.0048 C.ar    1  LIG1        0.0209
     41 H         -13.7032    7.6823    1.1769 H       1  LIG1        0.0661
     42 C         -11.7777    4.9203   -0.6949 C.ar    1  LIG1       -0.0310
     43 C         -13.1734    4.9054   -0.6647 C.ar    1  LIG1        0.0618
     44 H         -11.2607    4.1512   -1.2545 H       1  LIG1        0.0638
     45 O         -11.0701    7.8752    1.2704 O.3     1  LIG1       -0.5061
     46 H         -11.6580    8.4530    1.7706 H       1  LIG1        0.2922
     47 N         -14.3676    2.9637   -1.9056 N.1     1  LIG1       -0.1908
     48 C         -13.8376    3.8296   -1.3670 C.1     1  LIG1        0.0998
     49 C         -15.3677    5.9500    0.0953 C.ar    1  LIG1        0.0695
     50 C         -16.1901    7.0294    0.3967 C.ar    1  LIG1        0.0538
     51 C         -17.5319    6.5680    0.4358 C.ar    1  LIG1       -0.0039
     52 C         -17.4883    5.2128    0.1452 C.ar    1  LIG1        0.0534
     53 N         -16.1918    4.8628   -0.0609 N.ar    1  LIG1       -0.3524
     54 H         -15.9061    3.9432   -0.3657 H       1  LIG1        0.1660
     55 N         -15.7606    8.3596    0.6490 N.pl3   1  LIG1       -0.3561
     56 H         -15.3962    8.7981   -0.1931 H       1  LIG1        0.1424
     57 H         -16.5289    8.9215    0.9985 H       1  LIG1        0.1424
     58 C         -18.7492    7.3823    0.8012 C.3     1  LIG1       -0.0359
     59 H         -19.6221    6.7337    0.8592 H       1  LIG1        0.0279
     60 H         -18.9514    8.1536    0.0537 H       1  LIG1        0.0279
     61 H         -18.6080    7.8637    1.7717 H       1  LIG1        0.0279
     62 C         -19.6797    4.4234   -0.7807 C.ar    1  LIG1        0.0343
     63 C         -20.6821    3.4491   -0.8411 C.ar    1  LIG1       -0.0326
     64 C         -18.5722    4.2087    0.0617 C.ar    1  LIG1        0.0193
     65 C         -20.5845    2.2738   -0.1047 C.ar    1  LIG1       -0.0148
     66 H         -21.5427    3.6103   -1.4794 H       1  LIG1        0.0642
     67 C         -18.4864    3.0239    0.7954 C.ar    1  LIG1       -0.0503
     68 C         -19.4746    2.0534    0.7165 C.ar    1  LIG1       -0.0533
     69 H         -17.6359    2.8826    1.4518 H       1  LIG1        0.0625
     70 N         -19.7939    5.5928   -1.5249 N.pl3   1  LIG1       -0.3574
     71 H         -18.9175    6.0723   -1.6900 H       1  LIG1        0.1423
     72 H         -20.3750    5.5193   -2.3474 H       1  LIG1        0.1423
     73 H         -19.4098    1.1495    1.3075 H       1  LIG1        0.0624
     74 C         -23.0077    1.5205   -0.0455 C.ar    1  LIG1        0.0326
     75 C         -23.9523    0.4911   -0.1591 C.ar    1  LIG1       -0.0423
     76 C         -21.6454    1.2276   -0.2149 C.ar    1  LIG1        0.0010
     77 C         -23.5665   -0.8088   -0.4353 C.ar    1  LIG1       -0.0190
     78 H         -24.9976    0.7303   -0.0187 H       1  LIG1        0.0631
     79 C         -21.2617   -0.0851   -0.4918 C.ar    1  LIG1       -0.0113
     80 C         -22.2116   -1.0963   -0.6019 C.ar    1  LIG1        0.1175
     81 H         -20.2107   -0.3054   -0.6440 H       1  LIG1        0.0660
     82 H         -24.2857   -1.6105   -0.5269 H       1  LIG1        0.0654
     83 C         -23.4708    2.8507    0.2759 C.1     1  LIG1       -0.0690
     84 C         -23.8955    3.9418    0.5483 C.1     1  LIG1       -0.1139
     85 H         -24.2604    4.9108    0.7966 H       1  LIG1        0.1232
     86 O         -21.8760   -2.3832   -0.8771 O.3     1  LIG1       -0.5067
     87 H         -20.9246   -2.4700   -0.9989 H       1  LIG1        0.2921
@<TRIPOS>BOND
     1    13    12    1
     2    14    12    1
     3    12     4    1
     4    72    70    1
     5    47    48    3
     6     7     3    1
     7    71    70    1
     8    70    62    1
     9    66    63    1
    10    25    26    1
    11    25    18    1
    12    48    43    1
    13    44    42    1
    14     4     3   ar
    15     4     5   ar
    16    21    17    1
    17    87    86    1
    18     3     2   ar
    19    86    80    1
    20    63    62   ar
    21    63    65   ar
    22    62    64   ar
    23    18    17   ar
    24    18    19   ar
    25    42    43   ar
    26    42    39   ar
    27    43    40   ar
    28    17    16   ar
    29    81    79    1
    30    80    79   ar
    31    80    77   ar
    32    82    77    1
    33    79    76   ar
    34    77    75   ar
    35    54    53    1
    36    28    34    1
    37    28    27   ar
    38    28    29   ar
    39    76    65    1
    40    76    74   ar
    41    35    29    1
    42    35    36    1
    43    34    33    3
    44    56    55    1
    45    27    19    1
    46    27    31   ar
    47    75    74   ar
    48    75    78    1
    49    29    30   ar
    50    19    20   ar
    51    65    68   ar
    52    31    30   ar
    53    31    32    1
    54    16     5    1
    55    16    15   ar
    56    30    39    1
    57    53    49   ar
    58    53    52   ar
    59    39    37   ar
    60    74    83    1
    61     5     6   ar
    62    40    49    1
    63    40    38   ar
    64    60    58    1
    65    64    52    1
    66    64    67   ar
    67    49    50   ar
    68    52    51   ar
    69     2     8    1
    70     2     1   ar
    71    83    84    3
    72    50    51   ar
    73    50    55    1
    74    20    15   ar
    75    51    58    1
    76    15    22    1
    77    84    85    1
    78    37    38   ar
    79    37    45    1
    80    38    41    1
    81    55    57    1
    82    68    67   ar
    83    68    73    1
    84    67    69    1
    85    58    59    1
    86    58    61    1
    87    22    24    1
    88    22    23    1
    89     6     1   ar
    90     1     9    1
    91    45    46    1
    92    11     9    1
    93     9    10    1
