@<TRIPOS>MOLECULE
mol_data/opt/m06hf/geoms/mol2/6hh6hh.out
 28 29 0 0 0
SMALL
GASTEIGER

@<TRIPOS>ATOM
      1 C          -4.4422   -2.0541    0.4093 C.ar    1  LIG1        0.1169
      2 C          -3.0660   -2.0699    0.1299 C.ar    1  LIG1       -0.0203
      3 C          -2.4779   -0.9064   -0.3179 C.ar    1  LIG1       -0.0357
      4 C          -3.2313    0.2669   -0.4568 C.ar    1  LIG1        0.0511
      5 C          -4.5837    0.1971   -0.1018 C.ar    1  LIG1        0.0970
      6 N          -5.1593   -0.9490    0.2885 N.ar    1  LIG1       -0.2305
      7 H          -1.4215   -0.8901   -0.5597 H       1  LIG1        0.0638
      8 H          -2.4903   -2.9750    0.2650 H       1  LIG1        0.0652
      9 N          -5.0922   -3.1921    0.8762 N.pl3   1  LIG1       -0.3431
     10 H          -6.0979   -3.0954    0.8859 H       1  LIG1        0.1437
     11 H          -4.7721   -4.0690    0.4919 H       1  LIG1        0.1437
     12 N          -2.6292    1.4574   -0.9015 N.pl3   1  LIG1       -0.3563
     13 H          -1.8176    1.2908   -1.4830 H       1  LIG1        0.1424
     14 H          -3.2840    2.0776   -1.3648 H       1  LIG1        0.1424
     15 C          -6.7516    1.3690   -0.7200 C.ar    1  LIG1        0.1255
     16 C          -5.4553    1.4083   -0.1520 C.ar    1  LIG1        0.0434
     17 C          -5.0189    2.6111    0.3891 C.ar    1  LIG1       -0.0270
     18 C          -5.8222    3.7526    0.3304 C.ar    1  LIG1        0.0437
     19 C          -7.0642    3.6045   -0.2796 C.ar    1  LIG1        0.0503
     20 N          -7.5146    2.4553   -0.7755 N.ar    1  LIG1       -0.2382
     21 H          -4.0422    2.6569    0.8597 H       1  LIG1        0.0644
     22 H          -7.7353    4.4543   -0.3588 H       1  LIG1        0.0849
     23 N          -7.2572    0.2143   -1.2853 N.pl3   1  LIG1       -0.3426
     24 H          -8.2481    0.2813   -1.4697 H       1  LIG1        0.1437
     25 H          -6.9491   -0.6344   -0.8287 H       1  LIG1        0.1437
     26 N          -5.4208    4.9679    0.9165 N.pl3   1  LIG1       -0.3568
     27 H          -4.4212    5.1199    0.8817 H       1  LIG1        0.1424
     28 H          -5.9161    5.7716    0.5529 H       1  LIG1        0.1424
@<TRIPOS>BOND
     1    13    12    1
     2    24    23    1
     3    14    12    1
     4    23    25    1
     5    23    15    1
     6    12     4    1
     7    20    15   ar
     8    20    19   ar
     9    15    16   ar
    10     7     3    1
    11     4     3   ar
    12     4     5   ar
    13    22    19    1
    14     3     2   ar
    15    19    18   ar
    16    16     5    1
    17    16    17   ar
    18     5     6   ar
    19     2     8    1
    20     2     1   ar
    21     6     1   ar
    22    18    17   ar
    23    18    26    1
    24    17    21    1
    25     1     9    1
    26    11     9    1
    27    28    26    1
    28     9    10    1
    29    27    26    1
