@<TRIPOS>MOLECULE
mol_data/opt/m06hf/geoms/mol2/6hi13ed6ha12dl.out
 50 53 0 0 0
SMALL
GASTEIGER

@<TRIPOS>ATOM
      1 C          -4.5622   -2.0631   -0.2775 C.ar    1  LIG1        0.1169
      2 C          -3.2711   -2.2562    0.2561 C.ar    1  LIG1       -0.0218
      3 C          -2.5940   -1.1503    0.7162 C.ar    1  LIG1       -0.0535
      4 C          -3.1508    0.1380    0.6450 C.ar    1  LIG1       -0.0229
      5 C          -4.4045    0.2130    0.0458 C.ar    1  LIG1        0.0933
      6 N          -5.0975   -0.8570   -0.3809 N.ar    1  LIG1       -0.2307
      7 H          -1.6149   -1.2716    1.1650 H       1  LIG1        0.0622
      8 H          -2.8495   -3.2498    0.3243 H       1  LIG1        0.0652
      9 N          -5.3368   -3.1287   -0.6763 N.pl3   1  LIG1       -0.3431
     10 H          -6.1391   -2.8824   -1.2361 H       1  LIG1        0.1437
     11 H          -4.8667   -3.9814   -0.9346 H       1  LIG1        0.1437
     12 C          -2.4194    1.3131    1.2618 C.3     1  LIG1       -0.0376
     13 H          -3.1195    2.0986    1.5443 H       1  LIG1        0.0278
     14 H          -1.6999    1.7383    0.5627 H       1  LIG1        0.0278
     15 H          -1.8920    0.9740    2.1541 H       1  LIG1        0.0278
     16 C          -5.1561    1.4776   -0.1392 C.ar    1  LIG1        0.0826
     17 C          -4.8171    2.7726   -0.5009 C.ar    1  LIG1        0.0694
     18 C          -6.0441    3.5015   -0.5894 C.ar    1  LIG1        0.0931
     19 C          -7.0819    2.6308   -0.2972 C.ar    1  LIG1        0.0691
     20 N          -6.5113    1.4272   -0.0384 N.ar    1  LIG1       -0.3509
     21 H          -7.0194    0.5732    0.1713 H       1  LIG1        0.1660
     22 C          -3.5363    3.3031   -0.8534 C.1     1  LIG1       -0.0662
     23 C          -2.4886    3.7912   -1.1816 C.1     1  LIG1       -0.1138
     24 H          -1.5652    4.2310   -1.4796 H       1  LIG1        0.1232
     25 N          -6.3133    5.9819   -1.2458 N.1     1  LIG1       -0.1908
     26 C          -6.1828    4.8771   -0.9612 C.1     1  LIG1        0.1025
     27 C          -9.4489    1.8299   -0.5681 C.ar    1  LIG1        0.1261
     28 C          -8.5344    2.8540   -0.2256 C.ar    1  LIG1        0.0391
     29 C          -9.0622    4.0670    0.1975 C.ar    1  LIG1       -0.0472
     30 C         -10.4401    4.2326    0.3038 C.ar    1  LIG1       -0.0319
     31 C         -11.2418    3.1405   -0.0114 C.ar    1  LIG1        0.1095
     32 N         -10.7569    1.9765   -0.4472 N.ar    1  LIG1       -0.2286
     33 H          -8.3969    4.8797    0.4582 H       1  LIG1        0.0626
     34 N          -9.0022    0.5865   -1.0108 N.pl3   1  LIG1       -0.3426
     35 H          -9.7770    0.0102   -1.3157 H       1  LIG1        0.1437
     36 H          -8.2415    0.6169   -1.6814 H       1  LIG1        0.1437
     37 H         -10.8615    5.1708    0.6334 H       1  LIG1        0.0640
     38 C         -12.7132    3.2044    0.1080 C.ar    1  LIG1        0.1740
     39 C         -13.5752    4.1429    0.6120 C.ar    1  LIG1        0.1404
     40 C         -14.9025    3.5989    0.4449 C.ar    1  LIG1        0.1757
     41 C         -14.7319    2.3930   -0.1475 C.ar    1  LIG1        0.1355
     42 O         -13.4155    2.1606   -0.3411 O.2     1  LIG1       -0.4563
     43 H         -15.4238    1.6299   -0.4527 H       1  LIG1        0.1068
     44 N         -13.0207    6.4141    1.7019 N.1     1  LIG1       -0.1906
     45 C         -13.2575    5.3970    1.2231 C.1     1  LIG1        0.1067
     46 O         -16.0667    4.1606    0.8384 O.3     1  LIG1       -0.4907
     47 C         -16.4348    5.3328    0.1041 C.3     1  LIG1        0.0790
     48 H         -17.3917    5.6487    0.5095 H       1  LIG1        0.0660
     49 H         -15.6931    6.1200    0.2443 H       1  LIG1        0.0660
     50 H         -16.5309    5.0891   -0.9552 H       1  LIG1        0.0660
@<TRIPOS>BOND
     1    36    34    1
     2    24    23    1
     3    35    34    1
     4    25    26    3
     5    10     9    1
     6    23    22    3
     7    34    27    1
     8    26    18    1
     9    50    47    1
    10    11     9    1
    11    22    17    1
    12     9     1    1
    13    18    17   ar
    14    18    19   ar
    15    27    32   ar
    16    27    28   ar
    17    17    16   ar
    18    43    41    1
    19    32    31   ar
    20     6     1   ar
    21     6     5   ar
    22    42    41   ar
    23    42    38   ar
    24    19    28    1
    25    19    20   ar
    26     1     2   ar
    27    28    29   ar
    28    41    40   ar
    29    16    20   ar
    30    16     5    1
    31    20    21    1
    32    31    38    1
    33    31    30   ar
    34     5     4   ar
    35    47    49    1
    36    47    48    1
    37    47    46    1
    38    38    39   ar
    39    29    30   ar
    40    29    33    1
    41     2     8    1
    42     2     3   ar
    43    30    37    1
    44    40    39   ar
    45    40    46    1
    46    14    12    1
    47    39    45    1
    48     4     3   ar
    49     4    12    1
    50     3     7    1
    51    45    44    3
    52    12    13    1
    53    12    15    1
