@<TRIPOS>MOLECULE
mol_data/opt/m06hf/geoms/mol2/6hi12ed-13fe-4ia-.out
 50 53 0 0 0
SMALL
GASTEIGER

@<TRIPOS>ATOM
      1 C          -4.3733   -1.9768   -0.5933 C.ar    1  LIG1        0.1169
      2 C          -3.2438   -2.1191    0.2388 C.ar    1  LIG1       -0.0218
      3 C          -2.8353   -1.0255    0.9678 C.ar    1  LIG1       -0.0535
      4 C          -3.5154    0.2010    0.8885 C.ar    1  LIG1       -0.0213
      5 C          -4.6003    0.2236    0.0158 C.ar    1  LIG1        0.1122
      6 N          -5.0248   -0.8296   -0.6956 N.ar    1  LIG1       -0.2290
      7 H          -1.9826   -1.1116    1.6313 H       1  LIG1        0.0622
      8 H          -2.7343   -3.0702    0.3108 H       1  LIG1        0.0652
      9 N          -4.8713   -3.0447   -1.3104 N.pl3   1  LIG1       -0.3431
     10 H          -5.5269   -2.7844   -2.0326 H       1  LIG1        0.1437
     11 H          -4.2254   -3.7781   -1.5569 H       1  LIG1        0.1437
     12 C          -3.0853    1.3736    1.7469 C.3     1  LIG1       -0.0376
     13 H          -3.9389    2.0032    1.9978 H       1  LIG1        0.0278
     14 H          -2.3543    1.9904    1.2237 H       1  LIG1        0.0278
     15 H          -2.6407    1.0008    2.6697 H       1  LIG1        0.0278
     16 C          -5.4166    1.4425   -0.1877 C.ar    1  LIG1        0.1708
     17 C          -5.1265    2.7453   -0.4587 C.ar    1  LIG1        0.0900
     18 C          -6.4015    3.4195   -0.6074 C.ar    1  LIG1        0.1150
     19 C          -7.3580    2.4628   -0.4131 C.ar    1  LIG1        0.1740
     20 O          -6.7609    1.2814   -0.1669 O.2     1  LIG1       -0.4491
     21 C          -3.8429    3.3447   -0.6520 C.1     1  LIG1       -0.0645
     22 C          -2.7834    3.8796   -0.8352 C.1     1  LIG1       -0.1138
     23 H          -1.8483    4.3602   -1.0082 H       1  LIG1        0.1232
     24 N          -6.6181    5.9096   -1.2342 N.1     1  LIG1       -0.1907
     25 C          -6.5577    4.8000   -0.9487 C.1     1  LIG1        0.1043
     26 C          -8.8011    2.4307   -0.4093 C.ar    1  LIG1        0.1271
     27 C          -9.7542    3.4258   -0.4087 C.ar    1  LIG1        0.1611
     28 C         -11.0304    2.7993   -0.3669 C.ar    1  LIG1        0.0920
     29 C         -10.8115    1.4245   -0.3365 C.ar    1  LIG1        0.0665
     30 N          -9.4764    1.2288   -0.3670 N.ar    1  LIG1       -0.3478
     31 H          -9.0232    0.3276   -0.3092 H       1  LIG1        0.1661
     32 O          -9.5044    4.7468   -0.4335 O.3     1  LIG1       -0.5034
     33 H         -10.3397    5.2303   -0.4654 H       1  LIG1        0.2923
     34 C         -12.2646    3.5164   -0.4114 C.1     1  LIG1       -0.0638
     35 C         -13.2693    4.1785   -0.4509 C.1     1  LIG1       -0.1137
     36 H         -14.1690    4.7473   -0.4983 H       1  LIG1        0.1232
     37 C         -12.7051    0.1482    0.7101 C.ar    1  LIG1       -0.0413
     38 C         -13.5603   -0.9531    0.6661 C.ar    1  LIG1       -0.0582
     39 C         -11.7609    0.2873   -0.3193 C.ar    1  LIG1        0.0025
     40 C         -13.4830   -1.8955   -0.3555 C.ar    1  LIG1       -0.0615
     41 H         -14.2923   -1.0788    1.4547 H       1  LIG1        0.0620
     42 C         -11.6766   -0.6604   -1.3427 C.ar    1  LIG1       -0.0523
     43 C         -12.5352   -1.7534   -1.3641 C.ar    1  LIG1       -0.0611
     44 H         -10.9486   -0.5194   -2.1324 H       1  LIG1        0.0624
     45 H         -14.1595   -2.7403   -0.3604 H       1  LIG1        0.0618
     46 C         -12.7911    1.1412    1.8543 C.3     1  LIG1       -0.0391
     47 H         -13.3694    0.7130    2.6724 H       1  LIG1        0.0278
     48 H         -13.2714    2.0630    1.5235 H       1  LIG1        0.0278
     49 H         -11.7936    1.3921    2.2173 H       1  LIG1        0.0278
     50 H         -12.4691   -2.4801   -2.1626 H       1  LIG1        0.0618
@<TRIPOS>BOND
     1    50    43    1
     2    44    42    1
     3    10     9    1
     4    11     9    1
     5    43    42   ar
     6    43    40   ar
     7    42    39   ar
     8     9     1    1
     9    24    25    3
    10    23    22    1
    11    25    18    1
    12    22    21    3
    13     6     1   ar
    14     6     5   ar
    15    21    17    1
    16    18    17   ar
    17    18    19   ar
    18     1     2   ar
    19    36    35    1
    20    33    32    1
    21    17    16   ar
    22    35    34    3
    23    32    27    1
    24    19    26    1
    25    19    20   ar
    26    34    28    1
    27    26    27   ar
    28    26    30   ar
    29    27    28   ar
    30    30    29   ar
    31    30    31    1
    32    28    29   ar
    33    45    40    1
    34    40    38   ar
    35    29    39    1
    36    39    37   ar
    37    16    20   ar
    38    16     5    1
    39     5     4   ar
    40     2     8    1
    41     2     3   ar
    42    38    37   ar
    43    38    41    1
    44    37    46    1
    45     4     3   ar
    46     4    12    1
    47     3     7    1
    48    14    12    1
    49    48    46    1
    50    12    13    1
    51    12    15    1
    52    46    49    1
    53    46    47    1
