@<TRIPOS>MOLECULE
mol_data/opt/m06hf/geoms/mol2/6hi13hl-12al6ii.out
 56 59 0 0 0
SMALL
GASTEIGER

@<TRIPOS>ATOM
      1 C          -4.2285   -2.0284   -0.8404 C.ar    1  LIG1        0.1169
      2 C          -2.9227   -2.1914   -0.3372 C.ar    1  LIG1       -0.0218
      3 C          -2.3314   -1.1035    0.2676 C.ar    1  LIG1       -0.0535
      4 C          -2.9874    0.1326    0.3625 C.ar    1  LIG1       -0.0229
      5 C          -4.2479    0.1982   -0.2351 C.ar    1  LIG1        0.0940
      6 N          -4.8537   -0.8623   -0.7968 N.ar    1  LIG1       -0.2307
      7 H          -1.3461   -1.2080    0.7083 H       1  LIG1        0.0622
      8 H          -2.4270   -3.1508   -0.3952 H       1  LIG1        0.0652
      9 N          -4.9300   -3.0907   -1.3694 N.pl3   1  LIG1       -0.3431
     10 H          -5.7442   -2.8278   -1.9046 H       1  LIG1        0.1437
     11 H          -4.3998   -3.8658   -1.7347 H       1  LIG1        0.1437
     12 C          -2.3717    1.2634    1.1649 C.3     1  LIG1       -0.0376
     13 H          -3.1433    1.9491    1.5119 H       1  LIG1        0.0278
     14 H          -1.6526    1.8399    0.5804 H       1  LIG1        0.0278
     15 H          -1.8526    0.8426    2.0270 H       1  LIG1        0.0278
     16 C          -5.0725    1.4217   -0.2629 C.ar    1  LIG1        0.0904
     17 C          -4.7897    2.7732   -0.4079 C.ar    1  LIG1        0.0947
     18 C          -6.0370    3.4442   -0.4355 C.ar    1  LIG1        0.1695
     19 C          -7.0383    2.4978   -0.3281 C.ar    1  LIG1        0.1268
     20 N          -6.4358    1.2878   -0.2370 N.ar    1  LIG1       -0.3461
     21 H          -6.8916    0.3862   -0.2360 H       1  LIG1        0.1662
     22 N          -3.5525    3.4350   -0.5388 N.pl3   1  LIG1       -0.3534
     23 H          -2.8972    2.8977   -1.0964 H       1  LIG1        0.1425
     24 H          -3.7042    4.3385   -0.9772 H       1  LIG1        0.1425
     25 O          -6.2003    4.7976   -0.5555 O.3     1  LIG1       -0.4910
     26 C          -6.0968    5.4674    0.7033 C.3     1  LIG1        0.0790
     27 H          -6.2050    6.5304    0.4987 H       1  LIG1        0.0660
     28 H          -6.8907    5.1268    1.3707 H       1  LIG1        0.0660
     29 H          -5.1236    5.2656    1.1549 H       1  LIG1        0.0660
     30 C          -8.4766    2.6701   -0.3388 C.ar    1  LIG1        0.1591
     31 C          -9.2690    3.7508   -0.5828 C.ar    1  LIG1        0.0282
     32 C         -10.6117    3.2587   -0.4599 C.ar    1  LIG1        0.1663
     33 C         -10.5391    1.9249   -0.1559 C.ar    1  LIG1        0.1788
     34 O          -9.2222    1.5831   -0.0796 O.2     1  LIG1       -0.4494
     35 H          -8.9182    4.7359   -0.8385 H       1  LIG1        0.0693
     36 O         -11.7702    3.9437   -0.6136 O.3     1  LIG1       -0.4913
     37 C         -11.6377    5.2905   -1.0365 C.3     1  LIG1        0.0790
     38 H         -12.6488    5.6725   -1.1468 H       1  LIG1        0.0660
     39 H         -11.0992    5.8743   -0.2864 H       1  LIG1        0.0660
     40 H         -11.1146    5.3389   -1.9939 H       1  LIG1        0.0660
     41 C         -11.3114   -0.4736    0.0966 C.ar    1  LIG1        0.0490
     42 C         -11.5715    0.9151    0.0941 C.ar    1  LIG1        0.0422
     43 C         -12.8798    1.3404    0.3343 C.ar    1  LIG1       -0.0449
     44 C         -13.8894    0.4122    0.5689 C.ar    1  LIG1       -0.0317
     45 C         -13.5225   -0.9291    0.5573 C.ar    1  LIG1        0.0308
     46 N         -12.2815   -1.3534    0.3293 N.ar    1  LIG1       -0.2592
     47 H         -13.1003    2.4012    0.3350 H       1  LIG1        0.0628
     48 H         -14.2634   -1.7010    0.7380 H       1  LIG1        0.0832
     49 C          -9.9434   -1.0772   -0.1629 C.3     1  LIG1       -0.0217
     50 H          -9.2624   -0.8491    0.6586 H       1  LIG1        0.0293
     51 H          -9.5132   -0.6851   -1.0851 H       1  LIG1        0.0293
     52 H         -10.0792   -2.1533   -0.2384 H       1  LIG1        0.0293
     53 C         -15.3177    0.8477    0.8282 C.3     1  LIG1       -0.0383
     54 H         -15.9532   -0.0181    1.0115 H       1  LIG1        0.0278
     55 H         -15.7095    1.3920   -0.0321 H       1  LIG1        0.0278
     56 H         -15.3622    1.5029    1.6996 H       1  LIG1        0.0278
@<TRIPOS>BOND
     1    40    37    1
     2    10     9    1
     3    11     9    1
     4     9     1    1
     5    38    37    1
     6    23    22    1
     7    51    49    1
     8    37    36    1
     9    37    39    1
    10    24    22    1
    11     1     6   ar
    12     1     2   ar
    13    35    31    1
    14     6     5   ar
    15    36    32    1
    16    31    32   ar
    17    31    30   ar
    18    25    18    1
    19    25    26    1
    20    22    17    1
    21    32    33   ar
    22    18    17   ar
    23    18    19   ar
    24    17    16   ar
    25     8     2    1
    26    30    19    1
    27    30    34   ar
    28     2     3   ar
    29    19    20   ar
    30    16    20   ar
    31    16     5    1
    32    52    49    1
    33    20    21    1
    34     5     4   ar
    35    49    41    1
    36    49    50    1
    37    33    34   ar
    38    33    42    1
    39    55    53    1
    40    42    41   ar
    41    42    43   ar
    42    41    46   ar
    43     3     4   ar
    44     3     7    1
    45    46    45   ar
    46    43    47    1
    47    43    44   ar
    48     4    12    1
    49    27    26    1
    50    45    44   ar
    51    45    48    1
    52    44    53    1
    53    14    12    1
    54    26    29    1
    55    26    28    1
    56    53    54    1
    57    53    56    1
    58    12    13    1
    59    12    15    1
