@<TRIPOS>MOLECULE
mol_data/opt/m06hf/geoms/mol2/6hi12ei-12fe13hd.out
 49 52 0 0 0
SMALL
GASTEIGER

@<TRIPOS>ATOM
      1 C          -3.9527   -1.6343   -1.7046 C.ar    1  LIG1        0.1169
      2 C          -2.8162   -1.9368   -0.9277 C.ar    1  LIG1       -0.0218
      3 C          -2.5220   -1.1111    0.1339 C.ar    1  LIG1       -0.0535
      4 C          -3.3220    0.0030    0.4363 C.ar    1  LIG1       -0.0213
      5 C          -4.4030    0.2119   -0.4173 C.ar    1  LIG1        0.1122
      6 N          -4.7146   -0.5837   -1.4493 N.ar    1  LIG1       -0.2290
      7 H          -1.6672   -1.3311    0.7631 H       1  LIG1        0.0622
      8 H          -2.2148   -2.8068   -1.1534 H       1  LIG1        0.0652
      9 N          -4.3444   -2.4510   -2.7475 N.pl3   1  LIG1       -0.3431
     10 H          -5.0293   -2.0279   -3.3574 H       1  LIG1        0.1437
     11 H          -3.6214   -2.9758   -3.2150 H       1  LIG1        0.1437
     12 C          -3.0117    0.8575    1.6489 C.3     1  LIG1       -0.0376
     13 H          -3.9117    1.3510    2.0144 H       1  LIG1        0.0278
     14 H          -2.2814    1.6286    1.4027 H       1  LIG1        0.0278
     15 H          -2.6075    0.2259    2.4408 H       1  LIG1        0.0278
     16 C          -5.3361    1.3504   -0.2417 C.ar    1  LIG1        0.1698
     17 C          -5.1656    2.6948   -0.0544 C.ar    1  LIG1        0.0755
     18 C          -6.4858    3.2809    0.0053 C.ar    1  LIG1        0.0146
     19 C          -7.3326    2.2337   -0.1766 C.ar    1  LIG1        0.1785
     20 O          -6.6481    1.0750   -0.3270 O.2     1  LIG1       -0.4485
     21 C          -3.9353    3.4242    0.0167 C.1     1  LIG1       -0.0655
     22 C          -2.9270    4.0769    0.0708 C.1     1  LIG1       -0.1138
     23 H          -2.0317    4.6529    0.1101 H       1  LIG1        0.1232
     24 C          -6.8061    4.7342    0.2220 C.3     1  LIG1       -0.0348
     25 H          -7.8400    4.8468    0.5432 H       1  LIG1        0.0279
     26 H          -6.6691    5.2907   -0.7060 H       1  LIG1        0.0279
     27 H          -6.1362    5.1436    0.9779 H       1  LIG1        0.0279
     28 C          -8.7795    2.1491   -0.2529 C.ar    1  LIG1        0.2133
     29 C          -9.7394    2.9941   -0.7037 C.ar    1  LIG1        0.1822
     30 C         -11.0055    2.3180   -0.5439 C.ar    1  LIG1        0.1140
     31 C         -10.7042    1.0945   -0.0021 C.ar    1  LIG1        0.1727
     32 O          -9.3777    0.9967    0.1784 O.2     1  LIG1       -0.4451
     33 O          -9.5567    4.2234   -1.2291 O.3     1  LIG1       -0.5023
     34 H         -10.4022    4.5644   -1.5469 H       1  LIG1        0.2923
     35 C         -12.2472    2.8458   -1.0062 C.1     1  LIG1       -0.0621
     36 C         -13.2560    3.3497   -1.4303 C.1     1  LIG1       -0.1137
     37 H         -14.1512    3.7827   -1.8146 H       1  LIG1        0.1232
     38 C         -11.4713   -0.0641    0.3882 C.ar    1  LIG1        0.1057
     39 C         -12.8038   -0.2449    0.7211 C.ar    1  LIG1        0.0709
     40 C         -12.9351   -1.6279    1.0618 C.ar    1  LIG1        0.0903
     41 C         -11.6909   -2.2223    0.9406 C.ar    1  LIG1        0.0216
     42 N         -10.8277   -1.2804    0.5386 N.ar    1  LIG1       -0.3556
     43 H          -9.8410   -1.4068    0.3648 H       1  LIG1        0.1655
     44 H         -11.3978   -3.2429    1.1141 H       1  LIG1        0.0820
     45 N         -13.8110    0.6898    0.8222 N.pl3   1  LIG1       -0.3552
     46 H         -13.7502    1.4933    0.2130 H       1  LIG1        0.1424
     47 H         -14.7393    0.2987    0.9015 H       1  LIG1        0.1424
     48 N         -15.1723   -2.7057    1.7543 N.1     1  LIG1       -0.1908
     49 C         -14.1602   -2.2516    1.4541 C.1     1  LIG1        0.1025
@<TRIPOS>BOND
     1    10     9    1
     2    11     9    1
     3     9     1    1
     4    37    36    1
     5     1     6   ar
     6     1     2   ar
     7    34    33    1
     8     6     5   ar
     9    36    35    3
    10    33    29    1
    11     8     2    1
    12    35    30    1
    13     2     3   ar
    14    26    24    1
    15    29    30   ar
    16    29    28   ar
    17    30    31   ar
    18     5    16    1
    19     5     4   ar
    20    20    16   ar
    21    20    19   ar
    22    28    19    1
    23    28    32   ar
    24    16    17   ar
    25    19    18   ar
    26    17    18   ar
    27    17    21    1
    28    31    32   ar
    29    31    38    1
    30    18    24    1
    31    21    22    3
    32    22    23    1
    33     3     4   ar
    34     3     7    1
    35    46    45    1
    36    24    25    1
    37    24    27    1
    38    43    42    1
    39    38    42   ar
    40    38    39   ar
    41     4    12    1
    42    42    41   ar
    43    39    45    1
    44    39    40   ar
    45    45    47    1
    46    41    40   ar
    47    41    44    1
    48    40    49    1
    49    14    12    1
    50    49    48    3
    51    12    13    1
    52    12    15    1
