@<TRIPOS>MOLECULE
mol_data/opt/m06hf/geoms/mol2/6hi6hi6hi-6hi-.out
 58 61 0 0 0
SMALL
GASTEIGER

@<TRIPOS>ATOM
      1 C          -4.0192   -1.9344   -1.3276 C.ar    1  LIG1        0.1168
      2 C          -2.9495   -2.2317   -0.4642 C.ar    1  LIG1       -0.0218
      3 C          -2.6964   -1.3513    0.5655 C.ar    1  LIG1       -0.0536
      4 C          -3.4588   -0.1874    0.7399 C.ar    1  LIG1       -0.0242
      5 C          -4.4706    0.0314   -0.1981 C.ar    1  LIG1        0.0793
      6 N          -4.7451   -0.8345   -1.1870 N.ar    1  LIG1       -0.2321
      7 H          -1.8988   -1.5670    1.2676 H       1  LIG1        0.0622
      8 H          -2.3720   -3.1368   -0.5953 H       1  LIG1        0.0652
      9 N          -4.3929   -2.7998   -2.3362 N.pl3   1  LIG1       -0.3431
     10 H          -4.9857   -2.3810   -3.0380 H       1  LIG1        0.1437
     11 H          -3.6847   -3.4225   -2.6924 H       1  LIG1        0.1437
     12 C          -3.1888    0.7193    1.9276 C.3     1  LIG1       -0.0377
     13 H          -4.0922    1.2545    2.2165 H       1  LIG1        0.0278
     14 H          -2.4083    1.4499    1.7041 H       1  LIG1        0.0278
     15 H          -2.8535    0.1154    2.7714 H       1  LIG1        0.0278
     16 C          -6.7340    1.1867   -0.3112 C.ar    1  LIG1        0.1261
     17 C          -5.3241    1.2575   -0.1731 C.ar    1  LIG1        0.0405
     18 C          -4.7673    2.5179   -0.0322 C.ar    1  LIG1       -0.0443
     19 C          -5.5504    3.6753    0.0028 C.ar    1  LIG1       -0.0236
     20 C          -6.9278    3.4787   -0.1325 C.ar    1  LIG1        0.0793
     21 N          -7.4949    2.2792   -0.2797 N.ar    1  LIG1       -0.2314
     22 H          -3.6897    2.6072    0.0539 H       1  LIG1        0.0628
     23 N          -7.3824   -0.0111   -0.4443 N.pl3   1  LIG1       -0.3426
     24 H          -8.3546    0.0771   -0.6989 H       1  LIG1        0.1437
     25 H          -6.8498   -0.7515   -0.8802 H       1  LIG1        0.1437
     26 C          -4.9363    5.0452    0.2194 C.3     1  LIG1       -0.0377
     27 H          -5.4757    5.5797    1.0030 H       1  LIG1        0.0278
     28 H          -4.9849    5.6428   -0.6925 H       1  LIG1        0.0278
     29 H          -3.8950    4.9364    0.5231 H       1  LIG1        0.0278
     30 C          -7.8602    5.6320   -1.1055 C.ar    1  LIG1        0.1261
     31 C          -7.8722    4.6389   -0.1053 C.ar    1  LIG1        0.0405
     32 C          -8.8126    4.7720    0.8992 C.ar    1  LIG1       -0.0443
     33 C          -9.6958    5.8560    0.9480 C.ar    1  LIG1       -0.0236
     34 C          -9.5961    6.7813   -0.0966 C.ar    1  LIG1        0.0793
     35 N          -8.6941    6.6624   -1.0820 N.ar    1  LIG1       -0.2314
     36 H          -8.8458    4.0153    1.6758 H       1  LIG1        0.0628
     37 N          -6.9586    5.5891   -2.1538 N.pl3   1  LIG1       -0.3426
     38 H          -6.6135    4.6711   -2.3996 H       1  LIG1        0.1437
     39 H          -7.2310    6.1665   -2.9369 H       1  LIG1        0.1437
     40 C         -10.6515    5.9946    2.1200 C.3     1  LIG1       -0.0377
     41 H         -10.1946    5.5585    3.0089 H       1  LIG1        0.0278
     42 H         -11.5909    5.4702    1.9324 H       1  LIG1        0.0278
     43 H         -10.8721    7.0430    2.3159 H       1  LIG1        0.0278
     44 C          -9.9914    9.2660   -0.4721 C.ar    1  LIG1        0.1254
     45 C         -10.4986    7.9681   -0.1948 C.ar    1  LIG1        0.0404
     46 C         -11.8690    7.8423   -0.0405 C.ar    1  LIG1       -0.0449
     47 C         -12.7159    8.9527   -0.1113 C.ar    1  LIG1       -0.0316
     48 C         -12.0972   10.1717   -0.3499 C.ar    1  LIG1        0.0326
     49 N         -10.7873   10.3308   -0.5327 N.ar    1  LIG1       -0.2398
     50 H         -12.2906    6.8568    0.1280 H       1  LIG1        0.0628
     51 H         -12.6911   11.0787   -0.4106 H       1  LIG1        0.0833
     52 N          -8.6498    9.4864   -0.6452 N.pl3   1  LIG1       -0.3426
     53 H          -8.1275    8.7112   -1.0301 H       1  LIG1        0.1437
     54 H          -8.4351   10.4086   -0.9936 H       1  LIG1        0.1437
     55 C         -14.2164    8.8272    0.0572 C.3     1  LIG1       -0.0383
     56 H         -14.4623    8.4162    1.0378 H       1  LIG1        0.0278
     57 H         -14.6365    8.1689   -0.7053 H       1  LIG1        0.0278
     58 H         -14.6900    9.8046   -0.0342 H       1  LIG1        0.0278
@<TRIPOS>BOND
     1    10     9    1
     2    39    37    1
     3    11     9    1
     4    38    37    1
     5     9     1    1
     6    37    30    1
     7     1     6   ar
     8     1     2   ar
     9     6     5   ar
    10    30    35   ar
    11    30    31   ar
    12    35    34   ar
    13    53    52    1
    14    54    52    1
    15    25    23    1
    16    57    55    1
    17    24    23    1
    18    28    26    1
    19    52    44    1
    20     8     2    1
    21    49    44   ar
    22    49    48   ar
    23    44    45   ar
    24     2     3   ar
    25    23    16    1
    26    51    48    1
    27    48    47   ar
    28    16    21   ar
    29    16    17   ar
    30    21    20   ar
    31     5    17    1
    32     5     4   ar
    33    45    34    1
    34    45    46   ar
    35    17    18   ar
    36    20    31    1
    37    20    19   ar
    38    47    46   ar
    39    47    55    1
    40    31    32   ar
    41    34    33   ar
    42    46    50    1
    43    58    55    1
    44    18    19   ar
    45    18    22    1
    46    19    26    1
    47    55    56    1
    48    26    29    1
    49    26    27    1
    50     3     4   ar
    51     3     7    1
    52     4    12    1
    53    32    33   ar
    54    32    36    1
    55    33    40    1
    56    14    12    1
    57    12    13    1
    58    12    15    1
    59    42    40    1
    60    40    43    1
    61    40    41    1
