@<TRIPOS>MOLECULE
mol_data/opt/m06hf/geoms/mol2/6hi6hi-6hi-6hi-.out
 58 61 0 0 0
SMALL
GASTEIGER

@<TRIPOS>ATOM
      1 C          -4.4842   -2.2317   -0.6979 C.ar    1  LIG1        0.1168
      2 C          -3.0983   -2.3234   -0.4776 C.ar    1  LIG1       -0.0218
      3 C          -2.4210   -1.1723   -0.1297 C.ar    1  LIG1       -0.0536
      4 C          -3.0904    0.0519   -0.0052 C.ar    1  LIG1       -0.0242
      5 C          -4.4621    0.0278   -0.2739 C.ar    1  LIG1        0.0793
      6 N          -5.1376   -1.0790   -0.6028 N.ar    1  LIG1       -0.2321
      7 H          -1.3563   -1.2157    0.0686 H       1  LIG1        0.0622
      8 H          -2.5925   -3.2761   -0.5595 H       1  LIG1        0.0652
      9 N          -5.2414   -3.3484   -0.9860 N.pl3   1  LIG1       -0.3431
     10 H          -6.1683   -3.1395   -1.3270 H       1  LIG1        0.1437
     11 H          -4.7776   -4.1225   -1.4343 H       1  LIG1        0.1437
     12 C          -2.3719    1.3075    0.4515 C.3     1  LIG1       -0.0377
     13 H          -2.9168    1.7722    1.2747 H       1  LIG1        0.0278
     14 H          -2.3000    2.0333   -0.3604 H       1  LIG1        0.0278
     15 H          -1.3699    1.0517    0.7960 H       1  LIG1        0.0278
     16 C          -5.0816    2.3838   -1.0098 C.ar    1  LIG1        0.1261
     17 C          -5.2874    1.2713   -0.1694 C.ar    1  LIG1        0.0405
     18 C          -6.3110    1.3655    0.7555 C.ar    1  LIG1       -0.0443
     19 C          -7.0900    2.5202    0.8853 C.ar    1  LIG1       -0.0236
     20 C          -6.7976    3.5633   -0.0003 C.ar    1  LIG1        0.0793
     21 N          -5.8147    3.4840   -0.9090 N.ar    1  LIG1       -0.2314
     22 H          -6.4933    0.5173    1.4065 H       1  LIG1        0.0628
     23 N          -4.0881    2.3893   -1.9719 N.pl3   1  LIG1       -0.3426
     24 H          -3.8015    1.4827   -2.3148 H       1  LIG1        0.1437
     25 H          -4.2258    3.0921   -2.6848 H       1  LIG1        0.1437
     26 C          -8.1378    2.5966    1.9821 C.3     1  LIG1       -0.0377
     27 H          -7.8068    2.0025    2.8341 H       1  LIG1        0.0278
     28 H          -9.0971    2.1973    1.6457 H       1  LIG1        0.0278
     29 H          -8.2839    3.6258    2.3076 H       1  LIG1        0.0278
     30 C          -6.9145    6.1038   -0.0544 C.ar    1  LIG1        0.1261
     31 C          -7.5650    4.8446   -0.0008 C.ar    1  LIG1        0.0405
     32 C          -8.9466    4.8632    0.0601 C.ar    1  LIG1       -0.0443
     33 C          -9.6838    6.0522    0.0941 C.ar    1  LIG1       -0.0236
     34 C          -8.9396    7.2345    0.0477 C.ar    1  LIG1        0.0793
     35 N          -7.6010    7.2405   -0.0147 N.ar    1  LIG1       -0.2314
     36 H          -9.4788    3.9186    0.0843 H       1  LIG1        0.0628
     37 N          -5.5495    6.2077   -0.1006 N.pl3   1  LIG1       -0.3426
     38 H          -5.0719    5.4263   -0.5298 H       1  LIG1        0.1437
     39 H          -5.2189    7.1320   -0.3343 H       1  LIG1        0.1437
     40 C         -11.1950    5.9948    0.2330 C.3     1  LIG1       -0.0377
     41 H         -11.4702    5.1043    0.7994 H       1  LIG1        0.0278
     42 H         -11.6859    5.9391   -0.7410 H       1  LIG1        0.0278
     43 H         -11.5669    6.8732    0.7587 H       1  LIG1        0.0278
     44 C          -9.1131    9.6254    0.8980 C.ar    1  LIG1        0.1254
     45 C          -9.5866    8.5811    0.0578 C.ar    1  LIG1        0.0404
     46 C         -10.6634    8.8676   -0.7645 C.ar    1  LIG1       -0.0449
     47 C         -11.2889   10.1180   -0.7385 C.ar    1  LIG1       -0.0316
     48 C         -10.7607   11.0405    0.1538 C.ar    1  LIG1        0.0326
     49 N          -9.7084   10.8153    0.9386 N.ar    1  LIG1       -0.2398
     50 H         -11.0190    8.1048   -1.4496 H       1  LIG1        0.0628
     51 H         -11.2025   12.0286    0.2368 H       1  LIG1        0.0833
     52 N          -8.0495    9.4373    1.7396 N.pl3   1  LIG1       -0.3426
     53 H          -7.3616    8.7642    1.4296 H       1  LIG1        0.1437
     54 H          -7.7126   10.2889    2.1627 H       1  LIG1        0.1437
     55 C         -12.4654   10.4444   -1.6363 C.3     1  LIG1       -0.0383
     56 H         -13.2702    9.7208   -1.4963 H       1  LIG1        0.0278
     57 H         -12.1667   10.4266   -2.6858 H       1  LIG1        0.0278
     58 H         -12.8522   11.4370   -1.4059 H       1  LIG1        0.0278
@<TRIPOS>BOND
     1    57    55    1
     2    25    23    1
     3    24    23    1
     4    23    16    1
     5    55    56    1
     6    55    58    1
     7    55    47    1
     8    50    46    1
     9    11     9    1
    10    10     9    1
    11    16    21   ar
    12    16    17   ar
    13     9     1    1
    14    21    20   ar
    15    46    47   ar
    16    46    45   ar
    17    42    40    1
    18    47    48   ar
    19     1     6   ar
    20     1     2   ar
    21     6     5   ar
    22     8     2    1
    23    38    37    1
    24     2     3   ar
    25    14    12    1
    26    39    37    1
    27     5    17    1
    28     5     4   ar
    29    17    18   ar
    30     3     4   ar
    31     3     7    1
    32    37    30    1
    33    30    35   ar
    34    30    31   ar
    35    35    34   ar
    36     4    12    1
    37    31    20    1
    38    31    32   ar
    39    20    19   ar
    40    34    45    1
    41    34    33   ar
    42    45    44   ar
    43    32    36    1
    44    32    33   ar
    45    33    40    1
    46    48    51    1
    47    48    49   ar
    48    40    43    1
    49    40    41    1
    50    12    15    1
    51    12    13    1
    52    18    19   ar
    53    18    22    1
    54    19    26    1
    55    44    49   ar
    56    44    52    1
    57    53    52    1
    58    28    26    1
    59    52    54    1
    60    26    29    1
    61    26    27    1
