@<TRIPOS>MOLECULE
mol_data/opt/m06hf/geoms/mol2/6hi6hi6hi-6hi.out
 58 61 0 0 0
SMALL
GASTEIGER

@<TRIPOS>ATOM
      1 C          -4.0373   -1.9819   -1.2541 C.ar    1  LIG1        0.1168
      2 C          -2.9423   -2.2375   -0.4095 C.ar    1  LIG1       -0.0218
      3 C          -2.6636   -1.3107    0.5718 C.ar    1  LIG1       -0.0536
      4 C          -3.4251   -0.1423    0.7162 C.ar    1  LIG1       -0.0242
      5 C          -4.4659    0.0311   -0.2004 C.ar    1  LIG1        0.0793
      6 N          -4.7639   -0.8791   -1.1412 N.ar    1  LIG1       -0.2321
      7 H          -1.8453   -1.4926    1.2595 H       1  LIG1        0.0622
      8 H          -2.3647   -3.1457   -0.5165 H       1  LIG1        0.0652
      9 N          -4.4348   -2.8904   -2.2147 N.pl3   1  LIG1       -0.3431
     10 H          -5.0413   -2.5013   -2.9223 H       1  LIG1        0.1437
     11 H          -3.7363   -3.5316   -2.5570 H       1  LIG1        0.1437
     12 C          -3.1233    0.8152    1.8559 C.3     1  LIG1       -0.0377
     13 H          -4.0232    1.3458    2.1632 H       1  LIG1        0.0278
     14 H          -2.3662    1.5497    1.5729 H       1  LIG1        0.0278
     15 H          -2.7422    0.2501    2.7072 H       1  LIG1        0.0278
     16 C          -6.7406    1.1651   -0.2908 C.ar    1  LIG1        0.1261
     17 C          -5.3280    1.2513   -0.1990 C.ar    1  LIG1        0.0405
     18 C          -4.7792    2.5206   -0.1165 C.ar    1  LIG1       -0.0443
     19 C          -5.5705    3.6723   -0.0909 C.ar    1  LIG1       -0.0236
     20 C          -6.9502    3.4612   -0.1783 C.ar    1  LIG1        0.0793
     21 N          -7.5094    2.2523   -0.2716 N.ar    1  LIG1       -0.2314
     22 H          -3.7004    2.6209   -0.0673 H       1  LIG1        0.0628
     23 N          -7.3835   -0.0412   -0.3602 N.pl3   1  LIG1       -0.3426
     24 H          -8.3646    0.0304   -0.5837 H       1  LIG1        0.1437
     25 H          -6.8602   -0.7937   -0.7866 H       1  LIG1        0.1437
     26 C          -4.9627    5.0514    0.0803 C.3     1  LIG1       -0.0377
     27 H          -5.4535    5.5762    0.9019 H       1  LIG1        0.0278
     28 H          -5.0897    5.6475   -0.8251 H       1  LIG1        0.0278
     29 H          -3.9008    4.9595    0.3090 H       1  LIG1        0.0278
     30 C          -7.9276    5.6048   -1.1378 C.ar    1  LIG1        0.1261
     31 C          -7.9090    4.6088   -0.1412 C.ar    1  LIG1        0.0405
     32 C          -8.8470    4.7095    0.8739 C.ar    1  LIG1       -0.0443
     33 C          -9.7438    5.7784    0.9369 C.ar    1  LIG1       -0.0236
     34 C          -9.6592    6.7122   -0.1028 C.ar    1  LIG1        0.0793
     35 N          -8.7809    6.6230   -1.1051 N.ar    1  LIG1       -0.2314
     36 H          -8.8621    3.9417    1.6394 H       1  LIG1        0.0628
     37 N          -7.0446    5.5788   -2.2038 N.pl3   1  LIG1       -0.3426
     38 H          -6.7151    4.6650   -2.4834 H       1  LIG1        0.1437
     39 H          -7.3268    6.1848   -2.9615 H       1  LIG1        0.1437
     40 C         -10.7135    5.9349    2.0923 C.3     1  LIG1       -0.0377
     41 H         -10.4753    5.2112    2.8715 H       1  LIG1        0.0278
     42 H         -11.7409    5.7837    1.7568 H       1  LIG1        0.0278
     43 H         -10.6385    6.9401    2.5104 H       1  LIG1        0.0278
     44 C         -11.9554    7.7897   -0.2881 C.ar    1  LIG1        0.1254
     45 C         -10.5562    7.9092   -0.1414 C.ar    1  LIG1        0.0404
     46 C         -10.0250    9.1866   -0.0870 C.ar    1  LIG1       -0.0449
     47 C         -10.8543   10.3110   -0.1180 C.ar    1  LIG1       -0.0316
     48 C         -12.2165   10.0631   -0.2307 C.ar    1  LIG1        0.0326
     49 N         -12.7566    8.8484   -0.3256 N.ar    1  LIG1       -0.2398
     50 H          -8.9482    9.2978   -0.0170 H       1  LIG1        0.0628
     51 H         -12.9181   10.8906   -0.2613 H       1  LIG1        0.0833
     52 N         -12.5638    6.5503   -0.3856 N.pl3   1  LIG1       -0.3426
     53 H         -13.5116    6.6052   -0.7315 H       1  LIG1        0.1437
     54 H         -12.0024    5.8097   -0.7831 H       1  LIG1        0.1437
     55 C         -10.2971   11.7179   -0.0382 C.3     1  LIG1       -0.0383
     56 H         -11.0978   12.4497   -0.1453 H       1  LIG1        0.0278
     57 H          -9.5676   11.8852   -0.8319 H       1  LIG1        0.0278
     58 H          -9.8047   11.8831    0.9217 H       1  LIG1        0.0278
@<TRIPOS>BOND
     1    39    37    1
     2    10     9    1
     3    11     9    1
     4    38    37    1
     5     9     1    1
     6    37    30    1
     7     1     6   ar
     8     1     2   ar
     9     6     5   ar
    10    30    35   ar
    11    30    31   ar
    12    35    34   ar
    13    57    55    1
    14    28    26    1
    15    25    23    1
    16    54    52    1
    17    53    52    1
    18    24    23    1
    19     8     2    1
    20     2     3   ar
    21    52    44    1
    22    23    16    1
    23    49    44   ar
    24    49    48   ar
    25    16    21   ar
    26    16    17   ar
    27    44    45   ar
    28    21    20   ar
    29    51    48    1
    30    48    47   ar
    31     5    17    1
    32     5     4   ar
    33    17    18   ar
    34    20    31    1
    35    20    19   ar
    36    56    55    1
    37    45    34    1
    38    45    46   ar
    39    31    32   ar
    40    47    46   ar
    41    47    55    1
    42    18    19   ar
    43    18    22    1
    44    34    33   ar
    45    19    26    1
    46    46    50    1
    47    55    58    1
    48    26    29    1
    49    26    27    1
    50     3     4   ar
    51     3     7    1
    52     4    12    1
    53    32    33   ar
    54    32    36    1
    55    33    40    1
    56    14    12    1
    57    42    40    1
    58    12    13    1
    59    12    15    1
    60    40    43    1
    61    40    41    1
