@<TRIPOS>MOLECULE
mol_data/opt/m06hf/geoms/mol2/6hi6hi-.out
 30 31 0 0 0
SMALL
GASTEIGER

@<TRIPOS>ATOM
      1 C          -4.3927   -2.0275   -0.6942 C.ar    1  LIG1        0.1168
      2 C          -3.1128   -2.1213   -0.1211 C.ar    1  LIG1       -0.0218
      3 C          -2.5792   -0.9860    0.4562 C.ar    1  LIG1       -0.0536
      4 C          -3.2864    0.2225    0.4671 C.ar    1  LIG1       -0.0242
      5 C          -4.5382    0.2048   -0.1580 C.ar    1  LIG1        0.0793
      6 N          -5.0749   -0.8884   -0.7120 N.ar    1  LIG1       -0.2321
      7 H          -1.6037   -1.0321    0.9268 H       1  LIG1        0.0622
      8 H          -2.5817   -3.0637   -0.1170 H       1  LIG1        0.0652
      9 N          -5.0232   -3.1329   -1.2350 N.pl3   1  LIG1       -0.3431
     10 H          -5.8214   -2.8988   -1.8079 H       1  LIG1        0.1437
     11 H          -4.4320   -3.8609   -1.6053 H       1  LIG1        0.1437
     12 C          -2.7389    1.4543    1.1619 C.3     1  LIG1       -0.0377
     13 H          -3.5232    1.9277    1.7542 H       1  LIG1        0.0278
     14 H          -2.3834    2.1848    0.4336 H       1  LIG1        0.0278
     15 H          -1.9208    1.1702    1.8238 H       1  LIG1        0.0278
     16 C          -4.9834    2.6051   -0.8777 C.ar    1  LIG1        0.1254
     17 C          -5.3944    1.4302   -0.2114 C.ar    1  LIG1        0.0404
     18 C          -6.6574    1.4259    0.3571 C.ar    1  LIG1       -0.0449
     19 C          -7.4636    2.5667    0.3247 C.ar    1  LIG1       -0.0316
     20 C          -6.9295    3.6744   -0.3221 C.ar    1  LIG1        0.0326
     21 N          -5.7381    3.6972   -0.9183 N.ar    1  LIG1       -0.2398
     22 H          -7.0070    0.5162    0.8335 H       1  LIG1        0.0628
     23 H          -7.4983    4.5971   -0.3782 H       1  LIG1        0.0833
     24 N          -3.7569    2.6793   -1.5172 N.pl3   1  LIG1       -0.3426
     25 H          -3.3951    1.8079   -1.8797 H       1  LIG1        0.1437
     26 H          -3.6966    3.4645   -2.1503 H       1  LIG1        0.1437
     27 C          -8.8435    2.5899    0.9502 C.3     1  LIG1       -0.0383
     28 H          -8.7929    2.3068    2.0026 H       1  LIG1        0.0278
     29 H          -9.5077    1.8912    0.4390 H       1  LIG1        0.0278
     30 H          -9.2744    3.5887    0.8815 H       1  LIG1        0.0278
@<TRIPOS>BOND
     1    26    24    1
     2    25    24    1
     3    10     9    1
     4    11     9    1
     5    24    16    1
     6     9     1    1
     7    21    16   ar
     8    21    20   ar
     9    16    17   ar
    10     6     1   ar
    11     6     5   ar
    12     1     2   ar
    13    23    20    1
    14    20    19   ar
    15    17     5    1
    16    17    18   ar
    17     5     4   ar
    18     2     8    1
    19     2     3   ar
    20    19    18   ar
    21    19    27    1
    22    18    22    1
    23    14    12    1
    24    29    27    1
    25     3     4   ar
    26     3     7    1
    27     4    12    1
    28    30    27    1
    29    27    28    1
    30    12    13    1
    31    12    15    1
