@<TRIPOS>MOLECULE
mol_data/opt/m06hf/geoms/mol2/6hi6hd-4hf-4hi.out
 56 59 0 0 0
SMALL
GASTEIGER

@<TRIPOS>ATOM
      1 C          -3.5200   -1.6789   -1.3705 C.ar    1  LIG1        0.1168
      2 C          -2.7676   -2.1240   -0.2680 C.ar    1  LIG1       -0.0218
      3 C          -2.8973   -1.4313    0.9153 C.ar    1  LIG1       -0.0536
      4 C          -3.7269   -0.3046    1.0228 C.ar    1  LIG1       -0.0242
      5 C          -4.3932    0.0769   -0.1441 C.ar    1  LIG1        0.0793
      6 N          -4.3029   -0.6119   -1.2933 N.ar    1  LIG1       -0.2321
      7 H          -2.3559   -1.7676    1.7922 H       1  LIG1        0.0622
      8 H          -2.1354   -2.9977   -0.3495 H       1  LIG1        0.0652
      9 N          -3.5118   -2.3568   -2.5702 N.pl3   1  LIG1       -0.3431
     10 H          -3.8553   -1.8222   -3.3548 H       1  LIG1        0.1437
     11 H          -2.7156   -2.9432   -2.7658 H       1  LIG1        0.1437
     12 C          -3.8863    0.3809    2.3689 C.3     1  LIG1       -0.0377
     13 H          -4.8677    0.8453    2.4564 H       1  LIG1        0.0278
     14 H          -3.1228    1.1466    2.5233 H       1  LIG1        0.0278
     15 H          -3.7815   -0.3610    3.1608 H       1  LIG1        0.0278
     16 C          -6.5334    1.2848   -0.8477 C.ar    1  LIG1        0.1262
     17 C          -5.2605    1.2919   -0.2003 C.ar    1  LIG1        0.0414
     18 C          -4.8614    2.4834    0.3649 C.ar    1  LIG1       -0.0298
     19 C          -5.6951    3.6093    0.3305 C.ar    1  LIG1        0.0785
     20 C          -6.9412    3.4984   -0.3069 C.ar    1  LIG1        0.0923
     21 N          -7.3325    2.3587   -0.8638 N.ar    1  LIG1       -0.2304
     22 H          -3.8951    2.5582    0.8471 H       1  LIG1        0.0639
     23 N          -7.0072    0.1786   -1.4550 N.pl3   1  LIG1       -0.3426
     24 H          -7.8690    0.2894   -1.9657 H       1  LIG1        0.1437
     25 H          -6.3397   -0.5290   -1.7296 H       1  LIG1        0.1437
     26 N          -4.9167    5.7675    1.5328 N.1     1  LIG1       -0.1908
     27 C          -5.2811    4.8181    0.9982 C.1     1  LIG1        0.1013
     28 C          -7.5718    5.9050   -0.8134 C.ar    1  LIG1        0.0347
     29 C          -8.5435    6.9122   -0.7415 C.ar    1  LIG1       -0.0291
     30 C          -7.9116    4.6328   -0.3423 C.ar    1  LIG1        0.0258
     31 C          -9.8192    6.6876   -0.2371 C.ar    1  LIG1        0.0271
     32 H          -8.2968    7.8990   -1.1169 H       1  LIG1        0.0643
     33 C          -9.2073    4.3800    0.1199 C.ar    1  LIG1       -0.0086
     34 C         -10.1529    5.3882    0.1859 C.ar    1  LIG1        0.1253
     35 H          -9.4538    3.3726    0.4377 H       1  LIG1        0.0661
     36 N          -6.3409    6.2055   -1.4230 N.pl3   1  LIG1       -0.3574
     37 H          -5.6894    5.4316   -1.4434 H       1  LIG1        0.1423
     38 H          -5.8956    7.0267   -1.0301 H       1  LIG1        0.1423
     39 O         -11.4183    5.1670    0.6513 O.3     1  LIG1       -0.5061
     40 H         -11.5283    4.2371    0.8753 H       1  LIG1        0.2922
     41 C         -11.0863    8.5945   -1.2898 C.ar    1  LIG1        0.0325
     42 C         -11.9927    9.6541   -1.1580 C.ar    1  LIG1       -0.0402
     43 C         -10.8124    7.8017   -0.1632 C.ar    1  LIG1        0.0065
     44 C         -12.6168    9.9102    0.0527 C.ar    1  LIG1       -0.0571
     45 H         -12.1983   10.2799   -2.0184 H       1  LIG1        0.0636
     46 C         -11.4636    8.0734    1.0421 C.ar    1  LIG1       -0.0492
     47 C         -12.3682    9.1203    1.1773 C.ar    1  LIG1       -0.0498
     48 H         -11.2473    7.4358    1.8912 H       1  LIG1        0.0627
     49 H         -13.3124   10.7390    0.1247 H       1  LIG1        0.0621
     50 N         -10.4461    8.3743   -2.5144 N.pl3   1  LIG1       -0.3575
     51 H         -10.1193    7.4257   -2.6501 H       1  LIG1        0.1423
     52 H         -10.9602    8.7185   -3.3133 H       1  LIG1        0.1423
     53 C         -13.0813    9.3827    2.4914 C.3     1  LIG1       -0.0397
     54 H         -12.5341    8.9327    3.3196 H       1  LIG1        0.0278
     55 H         -14.0869    8.9575    2.4736 H       1  LIG1        0.0278
     56 H         -13.1665   10.4543    2.6752 H       1  LIG1        0.0278
@<TRIPOS>BOND
     1    10     9    1
     2    52    50    1
     3    11     9    1
     4    51    50    1
     5     9     1    1
     6    50    41    1
     7    45    42    1
     8    24    23    1
     9    25    23    1
    10    23    16    1
    11    37    36    1
    12    36    38    1
    13    36    28    1
    14     1     6   ar
    15     1     2   ar
    16     6     5   ar
    17    41    42   ar
    18    41    43   ar
    19    42    44   ar
    20    32    29    1
    21    21    16   ar
    22    21    20   ar
    23    16    17   ar
    24    28    29   ar
    25    28    30   ar
    26    29    31   ar
    27     8     2    1
    28    30    20    1
    29    30    33   ar
    30    20    19   ar
    31     2     3   ar
    32    31    43    1
    33    31    34   ar
    34    17     5    1
    35    17    18   ar
    36    43    46   ar
    37     5     4   ar
    38    44    49    1
    39    44    47   ar
    40    33    34   ar
    41    33    35    1
    42    34    39    1
    43    19    18   ar
    44    19    27    1
    45    18    22    1
    46    39    40    1
    47     3     4   ar
    48     3     7    1
    49    27    26    3
    50     4    12    1
    51    46    47   ar
    52    46    48    1
    53    47    53    1
    54    12    13    1
    55    12    14    1
    56    12    15    1
    57    55    53    1
    58    53    56    1
    59    53    54    1
