@<TRIPOS>MOLECULE
mol_data/opt/m06hf/geoms/mol2/6hi6hi-4hi6hi.out
 59 62 0 0 0
SMALL
GASTEIGER

@<TRIPOS>ATOM
      1 C          -4.5603   -2.2904   -0.3104 C.ar    1  LIG1        0.1168
      2 C          -3.1604   -2.3798   -0.2176 C.ar    1  LIG1       -0.0218
      3 C          -2.4463   -1.2081   -0.0681 C.ar    1  LIG1       -0.0536
      4 C          -3.0936    0.0328   -0.0169 C.ar    1  LIG1       -0.0242
      5 C          -4.4855    0.0020   -0.1471 C.ar    1  LIG1        0.0793
      6 N          -5.1952   -1.1240   -0.2824 N.ar    1  LIG1       -0.2321
      7 H          -1.3673   -1.2465    0.0294 H       1  LIG1        0.0622
      8 H          -2.6704   -3.3439   -0.2408 H       1  LIG1        0.0652
      9 N          -5.3487   -3.4205   -0.3958 N.pl3   1  LIG1       -0.3431
     10 H          -6.3031   -3.2331   -0.6667 H       1  LIG1        0.1437
     11 H          -4.9362   -4.2438   -0.8055 H       1  LIG1        0.1437
     12 C          -2.3276    1.3196    0.2252 C.3     1  LIG1       -0.0377
     13 H          -2.7801    1.8747    1.0484 H       1  LIG1        0.0278
     14 H          -2.3436    1.9550   -0.6620 H       1  LIG1        0.0278
     15 H          -1.2946    1.0881    0.4851 H       1  LIG1        0.0278
     16 C          -5.1588    2.2709   -1.0810 C.ar    1  LIG1        0.1261
     17 C          -5.2902    1.2626   -0.1062 C.ar    1  LIG1        0.0405
     18 C          -6.2246    1.4741    0.8920 C.ar    1  LIG1       -0.0443
     19 C          -6.9827    2.6468    0.9597 C.ar    1  LIG1       -0.0237
     20 C          -6.7694    3.5813   -0.0601 C.ar    1  LIG1        0.0778
     21 N          -5.8752    3.3861   -1.0400 N.ar    1  LIG1       -0.2314
     22 H          -6.3510    0.7061    1.6475 H       1  LIG1        0.0628
     23 N          -4.2575    2.1545   -2.1264 N.pl3   1  LIG1       -0.3426
     24 H          -4.0185    1.2093   -2.3942 H       1  LIG1        0.1437
     25 H          -4.4653    2.7741   -2.8971 H       1  LIG1        0.1437
     26 C          -7.9317    2.8634    2.1256 C.3     1  LIG1       -0.0377
     27 H          -7.5272    2.3744    3.0123 H       1  LIG1        0.0278
     28 H          -8.9155    2.4355    1.9221 H       1  LIG1        0.0278
     29 H          -8.0530    3.9258    2.3315 H       1  LIG1        0.0278
     30 C          -6.8770    6.0928   -0.3298 C.ar    1  LIG1        0.0344
     31 C          -7.6539    7.2585   -0.3644 C.ar    1  LIG1       -0.0323
     32 C          -7.5364    4.8644   -0.1338 C.ar    1  LIG1        0.0216
     33 C          -9.0389    7.2210   -0.2314 C.ar    1  LIG1       -0.0099
     34 H          -7.1665    8.2162   -0.5089 H       1  LIG1        0.0642
     35 C          -8.9274    4.8465   -0.0215 C.ar    1  LIG1       -0.0473
     36 C          -9.7082    5.9982   -0.0613 C.ar    1  LIG1       -0.0419
     37 H          -9.4175    3.8865    0.0976 H       1  LIG1        0.0627
     38 N          -5.4949    6.1622   -0.4333 N.pl3   1  LIG1       -0.3574
     39 H          -5.0799    5.3368   -0.8488 H       1  LIG1        0.1423
     40 H          -5.1433    7.0290   -0.8125 H       1  LIG1        0.1423
     41 C         -11.2161    5.9345    0.0979 C.3     1  LIG1       -0.0391
     42 H         -11.5216    4.9190    0.3503 H       1  LIG1        0.0278
     43 H         -11.7109    6.2398   -0.8263 H       1  LIG1        0.0278
     44 H         -11.5401    6.6071    0.8943 H       1  LIG1        0.0278
     45 C         -10.6288    8.8155   -1.3875 C.ar    1  LIG1        0.1239
     46 C          -9.7994    8.5073   -0.2829 C.ar    1  LIG1        0.0222
     47 C          -9.6986    9.4555    0.7200 C.ar    1  LIG1       -0.0464
     48 C         -10.4136   10.6571    0.6508 C.ar    1  LIG1       -0.0316
     49 C         -11.2048   10.8338   -0.4756 C.ar    1  LIG1        0.0326
     50 N         -11.3090    9.9521   -1.4714 N.ar    1  LIG1       -0.2398
     51 H          -9.0601    9.2470    1.5725 H       1  LIG1        0.0628
     52 H         -11.7866   11.7423   -0.5932 H       1  LIG1        0.0833
     53 N         -10.7831    7.9168   -2.4227 N.pl3   1  LIG1       -0.3427
     54 H         -11.1916    8.3166   -3.2545 H       1  LIG1        0.1437
     55 H         -10.0322    7.2560   -2.5645 H       1  LIG1        0.1437
     56 C         -10.3255   11.7034    1.7434 C.3     1  LIG1       -0.0383
     57 H         -10.9720   12.5495    1.5102 H       1  LIG1        0.0278
     58 H          -9.3023   12.0687    1.8449 H       1  LIG1        0.0278
     59 H         -10.6365   11.2857    2.7022 H       1  LIG1        0.0278
@<TRIPOS>BOND
     1    54    53    1
     2    25    23    1
     3    55    53    1
     4    53    45    1
     5    24    23    1
     6    23    16    1
     7    50    45   ar
     8    50    49   ar
     9    45    46   ar
    10    16    21   ar
    11    16    17   ar
    12    21    20   ar
    13    39    38    1
    14    43    41    1
    15    40    38    1
    16    11     9    1
    17    10     9    1
    18    14    12    1
    19    52    49    1
    20    34    31    1
    21    49    48   ar
    22    38    30    1
    23     9     1    1
    24    31    30   ar
    25    31    33   ar
    26    30    32   ar
    27     1     6   ar
    28     1     2   ar
    29    46    33    1
    30    46    47   ar
    31     6     5   ar
    32     8     2    1
    33    33    36   ar
    34     2     3   ar
    35     5    17    1
    36     5     4   ar
    37    32    20    1
    38    32    35   ar
    39    17    18   ar
    40     3     4   ar
    41     3     7    1
    42    36    35   ar
    43    36    41    1
    44    20    19   ar
    45    35    37    1
    46     4    12    1
    47    41    42    1
    48    41    44    1
    49    12    15    1
    50    12    13    1
    51    48    47   ar
    52    48    56    1
    53    47    51    1
    54    18    19   ar
    55    18    22    1
    56    19    26    1
    57    57    56    1
    58    56    58    1
    59    56    59    1
    60    28    26    1
    61    26    29    1
    62    26    27    1
