@<TRIPOS>MOLECULE
mol_data/opt/m06hf/geoms/mol2/6hi6ai-12fa6fa.out
 46 49 0 0 0
SMALL
GASTEIGER

@<TRIPOS>ATOM
      1 C          -4.2205   -1.9396   -0.9672 C.ar    1  LIG1        0.1168
      2 C          -3.0962   -2.1754   -0.1548 C.ar    1  LIG1       -0.0218
      3 C          -2.7047   -1.1707    0.7042 C.ar    1  LIG1       -0.0536
      4 C          -3.3889    0.0513    0.7611 C.ar    1  LIG1       -0.0243
      5 C          -4.4706    0.1860   -0.1132 C.ar    1  LIG1        0.0774
      6 N          -4.8747   -0.7867   -0.9389 N.ar    1  LIG1       -0.2321
      7 H          -1.8589   -1.3313    1.3636 H       1  LIG1        0.0622
      8 H          -2.5805   -3.1251   -0.1916 H       1  LIG1        0.0652
      9 N          -4.7225   -2.9138   -1.8027 N.pl3   1  LIG1       -0.3431
     10 H          -5.3863   -2.5722   -2.4821 H       1  LIG1        0.1437
     11 H          -4.0875   -3.6238   -2.1306 H       1  LIG1        0.1437
     12 C          -2.9703    1.1058    1.7702 C.3     1  LIG1       -0.0377
     13 H          -3.8276    1.6951    2.0945 H       1  LIG1        0.0278
     14 H          -2.2188    1.7818    1.3556 H       1  LIG1        0.0278
     15 H          -2.5364    0.6165    2.6426 H       1  LIG1        0.0278
     16 C          -6.6940    1.3039   -0.2861 C.ar    1  LIG1        0.0376
     17 C          -5.3031    1.4252   -0.1860 C.ar    1  LIG1        0.0190
     18 C          -4.7717    2.7092   -0.1917 C.ar    1  LIG1       -0.0461
     19 C          -5.6019    3.8272   -0.2837 C.ar    1  LIG1       -0.0207
     20 C          -6.9741    3.5752   -0.3908 C.ar    1  LIG1        0.1125
     21 N          -7.5039    2.3454   -0.3795 N.ar    1  LIG1       -0.2508
     22 H          -3.6991    2.8523   -0.1294 H       1  LIG1        0.0628
     23 H          -7.1457    0.3201   -0.2942 H       1  LIG1        0.0836
     24 C          -5.0249    5.2268   -0.2328 C.3     1  LIG1       -0.0376
     25 H          -5.6745    5.8786    0.3533 H       1  LIG1        0.0278
     26 H          -4.9465    5.6495   -1.2337 H       1  LIG1        0.0278
     27 H          -4.0377    5.1970    0.2279 H       1  LIG1        0.0278
     28 C          -7.9806    4.6472   -0.5001 C.ar    1  LIG1        0.1951
     29 C          -8.0898    5.8421   -1.1488 C.ar    1  LIG1        0.1648
     30 C          -9.4310    6.3179   -0.9510 C.ar    1  LIG1        0.0267
     31 C         -10.0477    5.3679   -0.1948 C.ar    1  LIG1        0.1445
     32 O          -9.1811    4.3780    0.0809 O.2     1  LIG1       -0.4493
     33 O          -7.1159    6.4284   -1.8908 O.3     1  LIG1       -0.5031
     34 H          -7.4580    7.2218   -2.3141 H       1  LIG1        0.2923
     35 H          -9.8749    7.2105   -1.3598 H       1  LIG1        0.0692
     36 C         -11.9695    3.9450    0.6004 C.ar    1  LIG1        0.2232
     37 C         -11.4098    5.2190    0.3293 C.ar    1  LIG1        0.0787
     38 C         -12.2100    6.3371    0.5408 C.ar    1  LIG1       -0.0445
     39 C         -13.5146    6.1833    0.9887 C.ar    1  LIG1       -0.0427
     40 C         -13.9621    4.8859    1.2146 C.ar    1  LIG1        0.0314
     41 N         -13.2136    3.8036    1.0296 N.ar    1  LIG1       -0.2209
     42 H         -11.7958    7.3227    0.3660 H       1  LIG1        0.0627
     43 H         -14.9708    4.7052    1.5670 H       1  LIG1        0.0831
     44 O         -11.3034    2.7976    0.4351 O.3     1  LIG1       -0.4919
     45 H         -10.3666    2.9279    0.2247 H       1  LIG1        0.2937
     46 H         -14.1580    7.0322    1.1657 H       1  LIG1        0.0633
@<TRIPOS>BOND
     1    10     9    1
     2    34    33    1
     3    11     9    1
     4    33    29    1
     5     9     1    1
     6    35    30    1
     7    26    24    1
     8    29    30   ar
     9    29    28   ar
    10     1     6   ar
    11     1     2   ar
    12    30    31   ar
    13     6     5   ar
    14    28    20    1
    15    28    32   ar
    16    20    21   ar
    17    20    19   ar
    18    21    16   ar
    19    23    16    1
    20    16    17   ar
    21    19    24    1
    22    19    18   ar
    23    24    27    1
    24    24    25    1
    25    31    32   ar
    26    31    37    1
    27    18    17   ar
    28    18    22    1
    29     8     2    1
    30    17     5    1
    31     2     3   ar
    32     5     4   ar
    33    45    44    1
    34    37    38   ar
    35    37    36   ar
    36    42    38    1
    37    44    36    1
    38    38    39   ar
    39    36    41   ar
    40     3     4   ar
    41     3     7    1
    42     4    12    1
    43    39    46    1
    44    39    40   ar
    45    41    40   ar
    46    40    43    1
    47    14    12    1
    48    12    13    1
    49    12    15    1
