@<TRIPOS>MOLECULE
mol_data/opt/m06hf/geoms/mol2/6hi6hi6hi6hi.out
 58 61 0 0 0
SMALL
GASTEIGER

@<TRIPOS>ATOM
      1 C          -3.8861   -1.7480   -1.6789 C.ar    1  LIG1        0.1168
      2 C          -2.9426   -2.2020   -0.7389 C.ar    1  LIG1       -0.0218
      3 C          -2.8207   -1.4931    0.4363 C.ar    1  LIG1       -0.0536
      4 C          -3.5894   -0.3469    0.6869 C.ar    1  LIG1       -0.0242
      5 C          -4.4670    0.0374   -0.3292 C.ar    1  LIG1        0.0793
      6 N          -4.6155   -0.6619   -1.4659 N.ar    1  LIG1       -0.2321
      7 H          -2.1252   -1.8345    1.1949 H       1  LIG1        0.0622
      8 H          -2.3604   -3.0929   -0.9300 H       1  LIG1        0.0652
      9 N          -4.1295   -2.4380   -2.8478 N.pl3   1  LIG1       -0.3431
     10 H          -4.6192   -1.9037   -3.5508 H       1  LIG1        0.1437
     11 H          -3.3973   -3.0373   -3.1946 H       1  LIG1        0.1437
     12 C          -3.4687    0.3620    2.0246 C.3     1  LIG1       -0.0377
     13 H          -4.4006    0.8639    2.2815 H       1  LIG1        0.0278
     14 H          -2.6657    1.1023    2.0138 H       1  LIG1        0.0278
     15 H          -3.2405   -0.3706    2.7993 H       1  LIG1        0.0278
     16 C          -6.6983    1.2397   -0.5461 C.ar    1  LIG1        0.1261
     17 C          -5.3160    1.2620   -0.2247 C.ar    1  LIG1        0.0405
     18 C          -4.7954    2.4725    0.1935 C.ar    1  LIG1       -0.0443
     19 C          -5.5778    3.6270    0.3176 C.ar    1  LIG1       -0.0236
     20 C          -6.9251    3.4896   -0.0241 C.ar    1  LIG1        0.0793
     21 N          -7.4540    2.3257   -0.4268 N.ar    1  LIG1       -0.2314
     22 H          -3.7392    2.5285    0.4347 H       1  LIG1        0.0628
     23 N          -7.3245    0.0900   -0.9460 N.pl3   1  LIG1       -0.3426
     24 H          -8.2433    0.2394   -1.3359 H       1  LIG1        0.1437
     25 H          -6.7327   -0.5852   -1.4116 H       1  LIG1        0.1437
     26 C          -4.9530    4.9046    0.8498 C.3     1  LIG1       -0.0377
     27 H          -5.6945    5.5080    1.3722 H       1  LIG1        0.0278
     28 H          -4.5195    5.5050    0.0467 H       1  LIG1        0.0278
     29 H          -4.1544    4.6502    1.5476 H       1  LIG1        0.0278
     30 C          -9.1621    4.5163    0.6188 C.ar    1  LIG1        0.1261
     31 C          -7.8780    4.6385    0.0274 C.ar    1  LIG1        0.0405
     32 C          -7.5512    5.8748   -0.4981 C.ar    1  LIG1       -0.0443
     33 C          -8.4211    6.9701   -0.4422 C.ar    1  LIG1       -0.0236
     34 C          -9.6560    6.7390    0.1683 C.ar    1  LIG1        0.0793
     35 N          -9.9938    5.5497    0.6873 N.ar    1  LIG1       -0.2314
     36 H          -6.5834    5.9989   -0.9720 H       1  LIG1        0.0628
     37 N          -9.5814    3.3424    1.1854 N.pl3   1  LIG1       -0.3426
     38 H         -10.5704    3.3172    1.3850 H       1  LIG1        0.1437
     39 H          -9.1712    2.5057    0.7912 H       1  LIG1        0.1437
     40 C          -7.9711    8.3171   -0.9799 C.3     1  LIG1       -0.0377
     41 H          -8.4639    9.1279   -0.4450 H       1  LIG1        0.0278
     42 H          -8.1918    8.4188   -2.0448 H       1  LIG1        0.0278
     43 H          -6.8927    8.4147   -0.8494 H       1  LIG1        0.0278
     44 C         -11.3991    8.0428    1.4853 C.ar    1  LIG1        0.1254
     45 C         -10.7005    7.8022    0.2722 C.ar    1  LIG1        0.0404
     46 C         -11.0454    8.5764   -0.8230 C.ar    1  LIG1       -0.0449
     47 C         -12.0100    9.5842   -0.7288 C.ar    1  LIG1       -0.0316
     48 C         -12.5930    9.7494    0.5198 C.ar    1  LIG1        0.0326
     49 N         -12.3109    9.0069    1.5892 N.ar    1  LIG1       -0.2398
     50 H         -10.5605    8.3848   -1.7749 H       1  LIG1        0.0628
     51 H         -13.3436   10.5190    0.6699 H       1  LIG1        0.0833
     52 N         -11.1313    7.3192    2.6178 N.pl3   1  LIG1       -0.3426
     53 H         -11.8042    7.4652    3.3555 H       1  LIG1        0.1437
     54 H         -10.8137    6.3718    2.4606 H       1  LIG1        0.1437
     55 C         -12.4006   10.4332   -1.9216 C.3     1  LIG1       -0.0383
     56 H         -13.1222   11.1939   -1.6237 H       1  LIG1        0.0278
     57 H         -12.8520    9.8179   -2.7019 H       1  LIG1        0.0278
     58 H         -11.5267   10.9337   -2.3420 H       1  LIG1        0.0278
@<TRIPOS>BOND
     1    10     9    1
     2    11     9    1
     3     9     1    1
     4    57    55    1
     5    58    55    1
     6    42    40    1
     7    55    56    1
     8    55    47    1
     9    50    46    1
    10     1     6   ar
    11     1     2   ar
    12     6     5   ar
    13    25    23    1
    14    24    23    1
    15    40    43    1
    16    40    41    1
    17    40    33    1
    18    36    32    1
    19    23    16    1
    20     8     2    1
    21    46    47   ar
    22    46    45   ar
    23     2     3   ar
    24    47    48   ar
    25    16    21   ar
    26    16    17   ar
    27    32    33   ar
    28    32    31   ar
    29    33    34   ar
    30    21    20   ar
    31     5    17    1
    32     5     4   ar
    33    17    18   ar
    34    20    31    1
    35    20    19   ar
    36    31    30   ar
    37    28    26    1
    38    34    45    1
    39    34    35   ar
    40    18    19   ar
    41    18    22    1
    42    45    44   ar
    43    19    26    1
    44     3     4   ar
    45     3     7    1
    46    48    51    1
    47    48    49   ar
    48    30    35   ar
    49    30    37    1
    50     4    12    1
    51    39    37    1
    52    26    27    1
    53    26    29    1
    54    37    38    1
    55    44    49   ar
    56    44    52    1
    57    14    12    1
    58    12    13    1
    59    12    15    1
    60    54    52    1
    61    52    53    1
