@<TRIPOS>MOLECULE
mol_data/opt/m06hf/geoms/mol2/6hi6hi-6hi.out
 44 46 0 0 0
SMALL
GASTEIGER

@<TRIPOS>ATOM
      1 C          -4.4330   -2.1356   -0.6287 C.ar    1  LIG1        0.1168
      2 C          -3.0871   -2.2144   -0.2291 C.ar    1  LIG1       -0.0218
      3 C          -2.4807   -1.0628    0.2312 C.ar    1  LIG1       -0.0536
      4 C          -3.1806    0.1488    0.2920 C.ar    1  LIG1       -0.0242
      5 C          -4.5032    0.1146   -0.1603 C.ar    1  LIG1        0.0793
      6 N          -5.1111   -0.9940   -0.5985 N.ar    1  LIG1       -0.2321
      7 H          -1.4514   -1.0969    0.5689 H       1  LIG1        0.0622
      8 H          -2.5597   -3.1582   -0.2630 H       1  LIG1        0.0652
      9 N          -5.1294   -3.2569   -1.0349 N.pl3   1  LIG1       -0.3431
     10 H          -6.0022   -3.0484   -1.4980 H       1  LIG1        0.1437
     11 H          -4.5966   -4.0107   -1.4396 H       1  LIG1        0.1437
     12 C          -2.5489    1.4028    0.8655 C.3     1  LIG1       -0.0377
     13 H          -3.2352    1.8771    1.5689 H       1  LIG1        0.0278
     14 H          -2.3268    2.1219    0.0757 H       1  LIG1        0.0278
     15 H          -1.6299    1.1441    1.3916 H       1  LIG1        0.0278
     16 C          -5.0473    2.4806   -0.9189 C.ar    1  LIG1        0.1261
     17 C          -5.3554    1.3439   -0.1457 C.ar    1  LIG1        0.0405
     18 C          -6.5130    1.3884    0.6147 C.ar    1  LIG1       -0.0443
     19 C          -7.3210    2.5267    0.6506 C.ar    1  LIG1       -0.0236
     20 C          -6.9117    3.5951   -0.1568 C.ar    1  LIG1        0.0793
     21 N          -5.8117    3.5676   -0.9140 N.ar    1  LIG1       -0.2314
     22 H          -6.7752    0.5170    1.2043 H       1  LIG1        0.0628
     23 N          -3.9193    2.5277   -1.7206 N.pl3   1  LIG1       -0.3426
     24 H          -3.5934    1.6398   -2.0770 H       1  LIG1        0.1437
     25 H          -3.9518    3.2766   -2.3980 H       1  LIG1        0.1437
     26 C          -8.5373    2.6091    1.5526 C.3     1  LIG1       -0.0377
     27 H          -8.5524    1.7525    2.2263 H       1  LIG1        0.0278
     28 H          -9.4551    2.6251    0.9628 H       1  LIG1        0.0278
     29 H          -8.5004    3.5236    2.1467 H       1  LIG1        0.0278
     30 C          -9.0153    4.9221   -0.6894 C.ar    1  LIG1        0.1254
     31 C          -7.6904    4.8719   -0.2023 C.ar    1  LIG1        0.0404
     32 C          -7.1068    6.0650    0.1884 C.ar    1  LIG1       -0.0449
     33 C          -7.8289    7.2612    0.1581 C.ar    1  LIG1       -0.0316
     34 C          -9.1357    7.1751   -0.3048 C.ar    1  LIG1        0.0326
     35 N          -9.7131    6.0512   -0.7292 N.ar    1  LIG1       -0.2398
     36 H          -6.0755    6.0523    0.5243 H       1  LIG1        0.0628
     37 H          -9.7546    8.0655   -0.3523 H       1  LIG1        0.0833
     38 N          -9.6589    3.7817   -1.1381 N.pl3   1  LIG1       -0.3426
     39 H         -10.4886    3.9868   -1.6767 H       1  LIG1        0.1437
     40 H          -9.0662    3.0568   -1.5188 H       1  LIG1        0.1437
     41 C          -7.2177    8.5754    0.6006 C.3     1  LIG1       -0.0383
     42 H          -7.9351    9.3870    0.4796 H       1  LIG1        0.0278
     43 H          -6.3326    8.8051    0.0054 H       1  LIG1        0.0278
     44 H          -6.9231    8.5286    1.6501 H       1  LIG1        0.0278
@<TRIPOS>BOND
     1    25    23    1
     2    24    23    1
     3    23    16    1
     4    39    38    1
     5    40    38    1
     6    10     9    1
     7    11     9    1
     8    38    30    1
     9     9     1    1
    10    16    21   ar
    11    16    17   ar
    12    21    20   ar
    13    35    30   ar
    14    35    34   ar
    15    30    31   ar
    16     1     6   ar
    17     1     2   ar
    18     6     5   ar
    19    37    34    1
    20    34    33   ar
    21     8     2    1
    22     2     3   ar
    23    31    20    1
    24    31    32   ar
    25     5    17    1
    26     5     4   ar
    27    20    19   ar
    28    17    18   ar
    29    43    41    1
    30    14    12    1
    31    33    32   ar
    32    33    41    1
    33    32    36    1
    34     3     4   ar
    35     3     7    1
    36     4    12    1
    37    42    41    1
    38    41    44    1
    39    18    19   ar
    40    18    22    1
    41    19    26    1
    42    12    15    1
    43    12    13    1
    44    28    26    1
    45    26    29    1
    46    26    27    1
