@<TRIPOS>MOLECULE
mol_data/opt/m06hf/geoms/mol2/6hi6hi.out
 30 31 0 0 0
SMALL
GASTEIGER

@<TRIPOS>ATOM
      1 C          -4.4892   -2.0387   -0.6918 C.ar    1  LIG1        0.1168
      2 C          -3.1180   -2.1091   -0.3899 C.ar    1  LIG1       -0.0218
      3 C          -2.5166   -0.9759    0.1146 C.ar    1  LIG1       -0.0536
      4 C          -3.2338    0.2136    0.3019 C.ar    1  LIG1       -0.0242
      5 C          -4.5820    0.1857   -0.0678 C.ar    1  LIG1        0.0793
      6 N          -5.1833   -0.9208   -0.5327 N.ar    1  LIG1       -0.2321
      7 H          -1.4679   -1.0059    0.3879 H       1  LIG1        0.0622
      8 H          -2.5704   -3.0317   -0.5246 H       1  LIG1        0.0652
      9 N          -5.1898   -3.1471   -1.1261 N.pl3   1  LIG1       -0.3431
     10 H          -6.0771   -2.9275   -1.5555 H       1  LIG1        0.1437
     11 H          -4.6608   -3.8701   -1.5883 H       1  LIG1        0.1437
     12 C          -2.5471    1.4155    0.9264 C.3     1  LIG1       -0.0377
     13 H          -3.2665    2.0388    1.4553 H       1  LIG1        0.0278
     14 H          -2.0460    2.0267    0.1725 H       1  LIG1        0.0278
     15 H          -1.7937    1.0696    1.6350 H       1  LIG1        0.0278
     16 C          -6.7482    1.3345    0.6112 C.ar    1  LIG1        0.1254
     17 C          -5.4524    1.3955    0.0305 C.ar    1  LIG1        0.0404
     18 C          -5.0325    2.6220   -0.4565 C.ar    1  LIG1       -0.0449
     19 C          -5.8294    3.7651   -0.3408 C.ar    1  LIG1       -0.0316
     20 C          -7.0553    3.5866    0.2848 C.ar    1  LIG1        0.0326
     21 N          -7.5095    2.4191    0.7379 N.ar    1  LIG1       -0.2398
     22 H          -4.0658    2.6897   -0.9454 H       1  LIG1        0.0628
     23 H          -7.7223    4.4320    0.4216 H       1  LIG1        0.0833
     24 N          -7.2520    0.1633    1.1099 N.pl3   1  LIG1       -0.3426
     25 H          -8.2292    0.2125    1.3551 H       1  LIG1        0.1437
     26 H          -6.9198   -0.6822    0.6672 H       1  LIG1        0.1437
     27 C          -5.3817    5.1123   -0.8710 C.3     1  LIG1       -0.0383
     28 H          -6.1274    5.8741   -0.6441 H       1  LIG1        0.0278
     29 H          -5.2457    5.0752   -1.9533 H       1  LIG1        0.0278
     30 H          -4.4354    5.4114   -0.4169 H       1  LIG1        0.0278
@<TRIPOS>BOND
     1    29    27    1
     2    11     9    1
     3    10     9    1
     4     9     1    1
     5    22    18    1
     6    27    28    1
     7    27    30    1
     8    27    19    1
     9     1     6   ar
    10     1     2   ar
    11     6     5   ar
    12     8     2    1
    13    18    19   ar
    14    18    17   ar
    15     2     3   ar
    16    19    20   ar
    17     5    17    1
    18     5     4   ar
    19    17    16   ar
    20     3     4   ar
    21     3     7    1
    22    14    12    1
    23    20    23    1
    24    20    21   ar
    25     4    12    1
    26    16    21   ar
    27    16    24    1
    28    26    24    1
    29    12    13    1
    30    12    15    1
    31    24    25    1
