@<TRIPOS>MOLECULE
mol_data/opt/m06hf/geoms/mol2/6hi6hi-6hi6hi-.out
 58 61 0 0 0
SMALL
GASTEIGER

@<TRIPOS>ATOM
      1 C          -4.3333   -2.1602   -0.8358 C.ar    1  LIG1        0.1168
      2 C          -3.0277   -2.2845   -0.3292 C.ar    1  LIG1       -0.0218
      3 C          -2.4595   -1.1787    0.2707 C.ar    1  LIG1       -0.0536
      4 C          -3.1578    0.0315    0.3683 C.ar    1  LIG1       -0.0242
      5 C          -4.4367    0.0468   -0.1968 C.ar    1  LIG1        0.0793
      6 N          -5.0074   -1.0175   -0.7732 N.ar    1  LIG1       -0.2321
      7 H          -1.4632   -1.2502    0.6917 H       1  LIG1        0.0622
      8 H          -2.5030   -3.2283   -0.3926 H       1  LIG1        0.0652
      9 N          -4.9959   -3.2376   -1.3893 N.pl3   1  LIG1       -0.3431
     10 H          -5.8288   -2.9849   -1.9007 H       1  LIG1        0.1437
     11 H          -4.4350   -3.9636   -1.8066 H       1  LIG1        0.1437
     12 C          -2.5739    1.2263    1.0979 C.3     1  LIG1       -0.0377
     13 H          -3.3071    1.6312    1.7971 H       1  LIG1        0.0278
     14 H          -2.3040    2.0178    0.3968 H       1  LIG1        0.0278
     15 H          -1.6896    0.9191    1.6562 H       1  LIG1        0.0278
     16 C          -4.9072    2.4724   -0.8026 C.ar    1  LIG1        0.1261
     17 C          -5.2853    1.2783   -0.1575 C.ar    1  LIG1        0.0405
     18 C          -6.5099    1.2664    0.4916 C.ar    1  LIG1       -0.0443
     19 C          -7.3169    2.4045    0.5479 C.ar    1  LIG1       -0.0236
     20 C          -6.8299    3.5351   -0.1192 C.ar    1  LIG1        0.0793
     21 N          -5.6659    3.5634   -0.7740 N.ar    1  LIG1       -0.2314
     22 H          -6.8275    0.3496    0.9755 H       1  LIG1        0.0628
     23 N          -3.7134    2.5732   -1.4951 N.pl3   1  LIG1       -0.3426
     24 H          -3.3534    1.7136   -1.8861 H       1  LIG1        0.1437
     25 H          -3.6794    3.3756   -2.1079 H       1  LIG1        0.1437
     26 C          -8.6180    2.4225    1.3270 C.3     1  LIG1       -0.0377
     27 H          -8.7210    1.4959    1.8910 H       1  LIG1        0.0278
     28 H          -9.4692    2.5323    0.6526 H       1  LIG1        0.0278
     29 H          -8.6250    3.2620    2.0241 H       1  LIG1        0.0278
     30 C          -8.8503    4.9324   -0.7642 C.ar    1  LIG1        0.1261
     31 C          -7.6010    4.8174   -0.1227 C.ar    1  LIG1        0.0405
     32 C          -7.0897    5.9540    0.4815 C.ar    1  LIG1       -0.0443
     33 C          -7.7983    7.1579    0.4911 C.ar    1  LIG1       -0.0236
     34 C          -9.0261    7.1522   -0.1827 C.ar    1  LIG1        0.0793
     35 N          -9.5318    6.0726   -0.7869 N.ar    1  LIG1       -0.2314
     36 H          -6.1240    5.8893    0.9705 H       1  LIG1        0.0628
     37 N          -9.4391    3.8502   -1.3937 N.pl3   1  LIG1       -0.3426
     38 H         -10.1878    4.1151   -2.0179 H       1  LIG1        0.1437
     39 H          -8.8087    3.1443   -1.7485 H       1  LIG1        0.1437
     40 C          -7.2818    8.3760    1.2326 C.3     1  LIG1       -0.0377
     41 H          -8.0759    8.8031    1.8471 H       1  LIG1        0.0278
     42 H          -6.9491    9.1434    0.5319 H       1  LIG1        0.0278
     43 H          -6.4527    8.0878    1.8787 H       1  LIG1        0.0278
     44 C          -9.4364    9.5589   -0.8913 C.ar    1  LIG1        0.1254
     45 C          -9.8765    8.3809   -0.2482 C.ar    1  LIG1        0.0404
     46 C         -11.1563    8.3806    0.2804 C.ar    1  LIG1       -0.0449
     47 C         -11.9533    9.5276    0.2328 C.ar    1  LIG1       -0.0316
     48 C         -11.3913   10.6368   -0.3869 C.ar    1  LIG1        0.0326
     49 N         -10.1814   10.6571   -0.9452 N.ar    1  LIG1       -0.2398
     50 H         -11.5275    7.4697    0.7381 H       1  LIG1        0.0628
     51 H         -11.9521   11.5638   -0.4531 H       1  LIG1        0.0833
     52 N          -8.1901    9.6288   -1.4894 N.pl3   1  LIG1       -0.3426
     53 H          -7.8136    8.7565   -1.8345 H       1  LIG1        0.1437
     54 H          -8.1010   10.4153   -2.1171 H       1  LIG1        0.1437
     55 C         -13.3509    9.5566    0.8173 C.3     1  LIG1       -0.0383
     56 H         -13.3301    9.2966    1.8767 H       1  LIG1        0.0278
     57 H         -13.9968    8.8438    0.3023 H       1  LIG1        0.0278
     58 H         -13.7841   10.5515    0.7145 H       1  LIG1        0.0278
@<TRIPOS>BOND
     1    54    52    1
     2    25    23    1
     3    38    37    1
     4    10     9    1
     5    24    23    1
     6    53    52    1
     7    11     9    1
     8    39    37    1
     9    23    16    1
    10    52    44    1
    11    37    30    1
    12     9     1    1
    13    49    44   ar
    14    49    48   ar
    15    44    45   ar
    16     1     6   ar
    17     1     2   ar
    18    16    21   ar
    19    16    17   ar
    20    35    30   ar
    21    35    34   ar
    22    21    20   ar
    23     6     5   ar
    24    30    31   ar
    25    51    48    1
    26     8     2    1
    27    48    47   ar
    28     2     3   ar
    29    45    34    1
    30    45    46   ar
    31     5    17    1
    32     5     4   ar
    33    34    33   ar
    34    17    18   ar
    35    31    20    1
    36    31    32   ar
    37    20    19   ar
    38    47    46   ar
    39    47    55    1
    40     3     4   ar
    41     3     7    1
    42    46    50    1
    43    57    55    1
    44     4    12    1
    45    14    12    1
    46    32    33   ar
    47    32    36    1
    48    33    40    1
    49    18    19   ar
    50    18    22    1
    51    42    40    1
    52    19    26    1
    53    28    26    1
    54    58    55    1
    55    55    56    1
    56    12    15    1
    57    12    13    1
    58    40    41    1
    59    40    43    1
    60    26    27    1
    61    26    29    1
