@<TRIPOS>MOLECULE
mol_data/opt/m06hf/geoms/mol2/6hi6hi6hi6hi-.out
 58 61 0 0 0
SMALL
GASTEIGER

@<TRIPOS>ATOM
      1 C          -3.5360   -1.6189   -1.5179 C.ar    1  LIG1        0.1168
      2 C          -2.7183   -2.0762   -0.4684 C.ar    1  LIG1       -0.0218
      3 C          -2.7945   -1.4119    0.7362 C.ar    1  LIG1       -0.0536
      4 C          -3.6377   -0.3052    0.9132 C.ar    1  LIG1       -0.0242
      5 C          -4.3775    0.0876   -0.2044 C.ar    1  LIG1        0.0793
      6 N          -4.3337   -0.5700   -1.3745 N.ar    1  LIG1       -0.2321
      7 H          -2.2004   -1.7583    1.5747 H       1  LIG1        0.0622
      8 H          -2.0783   -2.9371   -0.6050 H       1  LIG1        0.0652
      9 N          -3.5796   -2.2690   -2.7339 N.pl3   1  LIG1       -0.3431
     10 H          -3.9835   -1.7224   -3.4807 H       1  LIG1        0.1437
     11 H          -2.7772   -2.8215   -2.9921 H       1  LIG1        0.1437
     12 C          -3.7395    0.3543    2.2773 C.3     1  LIG1       -0.0377
     13 H          -4.7194    0.8099    2.4136 H       1  LIG1        0.0278
     14 H          -2.9761    1.1247    2.4070 H       1  LIG1        0.0278
     15 H          -3.5925   -0.3990    3.0518 H       1  LIG1        0.0278
     16 C          -6.6028    1.2196   -0.6899 C.ar    1  LIG1        0.1261
     17 C          -5.2803    1.2773   -0.1799 C.ar    1  LIG1        0.0405
     18 C          -4.8683    2.4894    0.3423 C.ar    1  LIG1       -0.0443
     19 C          -5.7039    3.6113    0.3905 C.ar    1  LIG1       -0.0236
     20 C          -6.9861    3.4404   -0.1373 C.ar    1  LIG1        0.0793
     21 N          -7.4095    2.2739   -0.6438 N.ar    1  LIG1       -0.2314
     22 H          -3.8579    2.5725    0.7287 H       1  LIG1        0.0628
     23 N          -7.1222    0.0630   -1.2078 N.pl3   1  LIG1       -0.3426
     24 H          -7.9854    0.1940   -1.7139 H       1  LIG1        0.1437
     25 H          -6.4458   -0.5711   -1.6118 H       1  LIG1        0.1437
     26 C          -5.2074    4.8914    1.0390 C.3     1  LIG1       -0.0377
     27 H          -6.0369    5.4540    1.4656 H       1  LIG1        0.0278
     28 H          -4.6879    5.5301    0.3212 H       1  LIG1        0.0278
     29 H          -4.5062    4.6419    1.8363 H       1  LIG1        0.0278
     30 C          -9.3252    4.3719    0.2170 C.ar    1  LIG1        0.1261
     31 C          -7.9784    4.5557   -0.1862 C.ar    1  LIG1        0.0405
     32 C          -7.6237    5.8154   -0.6411 C.ar    1  LIG1       -0.0443
     33 C          -8.5344    6.8750   -0.6781 C.ar    1  LIG1       -0.0236
     34 C          -9.8302    6.5765   -0.2459 C.ar    1  LIG1        0.0793
     35 N         -10.2056    5.3705    0.1883 N.ar    1  LIG1       -0.2314
     36 H          -6.6064    5.9821   -0.9778 H       1  LIG1        0.0628
     37 N          -9.7729    3.1683    0.6932 N.pl3   1  LIG1       -0.3426
     38 H         -10.7766    3.1164    0.7824 H       1  LIG1        0.1437
     39 H          -9.2946    2.3540    0.3312 H       1  LIG1        0.1437
     40 C          -8.1161    8.2657   -1.1153 C.3     1  LIG1       -0.0377
     41 H          -8.4578    9.0056   -0.3898 H       1  LIG1        0.0278
     42 H          -8.5526    8.5166   -2.0834 H       1  LIG1        0.0278
     43 H          -7.0292    8.3175   -1.1829 H       1  LIG1        0.0278
     44 C         -11.3625    8.2372   -1.4100 C.ar    1  LIG1        0.1254
     45 C         -10.8976    7.6247   -0.2261 C.ar    1  LIG1        0.0404
     46 C         -11.5061    7.9872    0.9635 C.ar    1  LIG1       -0.0449
     47 C         -12.5005    8.9689    0.9911 C.ar    1  LIG1       -0.0316
     48 C         -12.8452    9.5247   -0.2345 C.ar    1  LIG1        0.0326
     49 N         -12.3096    9.1682   -1.4019 N.ar    1  LIG1       -0.2398
     50 H         -11.1915    7.4946    1.8775 H       1  LIG1        0.0628
     51 H         -13.6094   10.2937   -0.2858 H       1  LIG1        0.0833
     52 N         -10.8362    7.9011   -2.6460 N.pl3   1  LIG1       -0.3426
     53 H         -10.4826    6.9580   -2.7338 H       1  LIG1        0.1437
     54 H         -11.4118    8.2165   -3.4142 H       1  LIG1        0.1437
     55 C         -13.1689    9.3956    2.2825 C.3     1  LIG1       -0.0383
     56 H         -12.4329    9.7922    2.9834 H       1  LIG1        0.0278
     57 H         -13.6686    8.5475    2.7534 H       1  LIG1        0.0278
     58 H         -13.9116   10.1694    2.0873 H       1  LIG1        0.0278
@<TRIPOS>BOND
     1    10     9    1
     2    54    52    1
     3    11     9    1
     4     9     1    1
     5    53    52    1
     6    52    44    1
     7    42    40    1
     8    24    23    1
     9    25    23    1
    10     1     6   ar
    11     1     2   ar
    12    44    49   ar
    13    44    45   ar
    14    49    48   ar
    15     6     5   ar
    16    23    16    1
    17    43    40    1
    18    40    33    1
    19    40    41    1
    20    36    32    1
    21    16    21   ar
    22    16    17   ar
    23    33    32   ar
    24    33    34   ar
    25    21    20   ar
    26    32    31   ar
    27     8     2    1
    28     2     3   ar
    29    51    48    1
    30    34    45    1
    31    34    35   ar
    32    48    47   ar
    33    45    46   ar
    34     5    17    1
    35     5     4   ar
    36    31    20    1
    37    31    30   ar
    38    17    18   ar
    39    20    19   ar
    40    35    30   ar
    41    30    37    1
    42    28    26    1
    43    39    37    1
    44    18    19   ar
    45    18    22    1
    46    19    26    1
    47    37    38    1
    48     3     4   ar
    49     3     7    1
    50     4    12    1
    51    46    47   ar
    52    46    50    1
    53    47    55    1
    54    26    27    1
    55    26    29    1
    56    58    55    1
    57    12    14    1
    58    12    13    1
    59    12    15    1
    60    55    57    1
    61    55    56    1
