@<TRIPOS>MOLECULE
mol_data/opt/m06hf/geoms/mol2/6hi6ae-12eh12la-.out
 49 52 0 0 0
SMALL
GASTEIGER

@<TRIPOS>ATOM
      1 C          -3.8454   -1.7581   -1.1352 C.ar    1  LIG1        0.1168
      2 C          -2.8498   -2.0389   -0.1806 C.ar    1  LIG1       -0.0218
      3 C          -2.6858   -1.1464    0.8564 C.ar    1  LIG1       -0.0536
      4 C          -3.4692    0.0123    0.9569 C.ar    1  LIG1       -0.0243
      5 C          -4.4024    0.2045   -0.0643 C.ar    1  LIG1        0.0775
      6 N          -4.5897   -0.6633   -1.0660 N.ar    1  LIG1       -0.2321
      7 H          -1.9456   -1.3483    1.6222 H       1  LIG1        0.0622
      8 H          -2.2564   -2.9401   -0.2541 H       1  LIG1        0.0652
      9 N          -4.1215   -2.6310   -2.1648 N.pl3   1  LIG1       -0.3431
     10 H          -4.6952   -2.2383   -2.8969 H       1  LIG1        0.1437
     11 H          -3.3800   -3.2400   -2.4725 H       1  LIG1        0.1437
     12 C          -3.3021    0.9344    2.1516 C.3     1  LIG1       -0.0377
     13 H          -4.2407    1.4297    2.3988 H       1  LIG1        0.0278
     14 H          -2.5431    1.6977    1.9651 H       1  LIG1        0.0278
     15 H          -2.9837    0.3491    3.0146 H       1  LIG1        0.0278
     16 C          -6.6395    1.2209   -0.5153 C.ar    1  LIG1        0.0376
     17 C          -5.3035    1.3956   -0.1262 C.ar    1  LIG1        0.0200
     18 C          -4.8785    2.6880    0.1397 C.ar    1  LIG1       -0.0335
     19 C          -5.7809    3.7516    0.0251 C.ar    1  LIG1        0.0543
     20 C          -7.0883    3.4598   -0.3854 C.ar    1  LIG1        0.1226
     21 N          -7.5026    2.2169   -0.6356 N.ar    1  LIG1       -0.2500
     22 H          -3.8566    2.8973    0.4253 H       1  LIG1        0.0637
     23 H          -6.9985    0.2249   -0.7422 H       1  LIG1        0.0836
     24 C          -5.3578    5.0845    0.3702 C.1     1  LIG1       -0.0674
     25 C          -4.9764    6.1807    0.6796 C.1     1  LIG1       -0.1138
     26 H          -4.6570    7.1629    0.9396 H       1  LIG1        0.1232
     27 C          -8.1055    4.5187   -0.5628 C.ar    1  LIG1        0.1723
     28 C          -8.0882    5.7127   -1.2340 C.ar    1  LIG1        0.0933
     29 C          -9.4183    6.2523   -1.1035 C.ar    1  LIG1        0.0905
     30 C         -10.1189    5.3523   -0.3608 C.ar    1  LIG1        0.1960
     31 O          -9.3123    4.2978   -0.0402 O.2     1  LIG1       -0.4468
     32 C          -7.0426    6.3072   -2.0057 C.1     1  LIG1       -0.0639
     33 C          -6.2043    6.8438   -2.6804 C.1     1  LIG1       -0.1137
     34 H          -5.4436    7.3039   -3.2675 H       1  LIG1        0.1232
     35 N          -9.8316    7.4904   -1.5848 N.pl3   1  LIG1       -0.3540
     36 H          -9.2847    7.8028   -2.3780 H       1  LIG1        0.1425
     37 H         -10.8282    7.5388   -1.7600 H       1  LIG1        0.1425
     38 C         -11.4954    5.3720    0.1144 C.ar    1  LIG1        0.2128
     39 C         -12.1962    6.1884    0.9612 C.ar    1  LIG1        0.1687
     40 C         -13.5521    5.7092    0.9723 C.ar    1  LIG1        0.0187
     41 C         -13.5598    4.6390    0.1443 C.ar    1  LIG1        0.0964
     42 O         -12.3472    4.4243   -0.3814 O.2     1  LIG1       -0.4560
     43 H         -14.3369    3.9567   -0.1529 H       1  LIG1        0.1031
     44 O         -11.8153    7.2416    1.7050 O.3     1  LIG1       -0.4912
     45 C         -10.4201    7.5139    1.7887 C.3     1  LIG1        0.0790
     46 H         -10.3210    8.2922    2.5409 H       1  LIG1        0.0660
     47 H          -9.8809    6.6171    2.1030 H       1  LIG1        0.0660
     48 H         -10.0411    7.8652    0.8268 H       1  LIG1        0.0660
     49 H         -14.3676    6.1233    1.5382 H       1  LIG1        0.0686
@<TRIPOS>BOND
     1    34    33    1
     2    10     9    1
     3    33    32    3
     4    11     9    1
     5    36    35    1
     6     9     1    1
     7    32    28    1
     8    37    35    1
     9    35    29    1
    10    28    29   ar
    11    28    27   ar
    12     1     6   ar
    13     1     2   ar
    14    29    30   ar
    15     6     5   ar
    16    23    16    1
    17    21    16   ar
    18    21    20   ar
    19    27    20    1
    20    27    31   ar
    21    16    17   ar
    22    20    19   ar
    23    42    38   ar
    24    42    41   ar
    25    30    31   ar
    26    30    38    1
    27     8     2    1
    28     2     3   ar
    29    43    41    1
    30    17     5    1
    31    17    18   ar
    32     5     4   ar
    33    19    18   ar
    34    19    24    1
    35    38    39   ar
    36    18    22    1
    37    41    40   ar
    38    24    25    3
    39    25    26    1
    40    48    45    1
    41     3     4   ar
    42     3     7    1
    43     4    12    1
    44    39    40   ar
    45    39    44    1
    46    40    49    1
    47    44    45    1
    48    45    47    1
    49    45    46    1
    50    14    12    1
    51    12    13    1
    52    12    15    1
