@<TRIPOS>MOLECULE
mol_data/opt/m06hf/geoms/mol2/6hi6hi-6hi-6hi.out
 58 61 0 0 0
SMALL
GASTEIGER

@<TRIPOS>ATOM
      1 C          -4.5434   -2.2825   -0.4202 C.ar    1  LIG1        0.1168
      2 C          -3.1491   -2.3704   -0.2613 C.ar    1  LIG1       -0.0218
      3 C          -2.4484   -1.2021   -0.0391 C.ar    1  LIG1       -0.0536
      4 C          -3.1035    0.0344    0.0215 C.ar    1  LIG1       -0.0242
      5 C          -4.4873    0.0030   -0.1760 C.ar    1  LIG1        0.0793
      6 N          -5.1846   -1.1196   -0.3832 N.ar    1  LIG1       -0.2321
      7 H          -1.3754   -1.2404    0.1093 H       1  LIG1        0.0622
      8 H          -2.6535   -3.3314   -0.2926 H       1  LIG1        0.0652
      9 N          -5.3212   -3.4107   -0.5842 N.pl3   1  LIG1       -0.3431
     10 H          -6.2615   -3.2181   -0.8967 H       1  LIG1        0.1437
     11 H          -4.8845   -4.2199   -0.9965 H       1  LIG1        0.1437
     12 C          -2.3556    1.3153    0.3397 C.3     1  LIG1       -0.0377
     13 H          -2.8589    1.8523    1.1452 H       1  LIG1        0.0278
     14 H          -2.3162    1.9710   -0.5320 H       1  LIG1        0.0278
     15 H          -1.3407    1.0779    0.6586 H       1  LIG1        0.0278
     16 C          -5.1272    2.2991   -1.0653 C.ar    1  LIG1        0.1261
     17 C          -5.2984    1.2592   -0.1301 C.ar    1  LIG1        0.0405
     18 C          -6.2747    1.4370    0.8330 C.ar    1  LIG1       -0.0443
     19 C          -7.0386    2.6063    0.9074 C.ar    1  LIG1       -0.0236
     20 C          -6.7838    3.5733   -0.0719 C.ar    1  LIG1        0.0793
     21 N          -5.8476    3.4112   -1.0181 N.ar    1  LIG1       -0.2314
     22 H          -6.4305    0.6451    1.5576 H       1  LIG1        0.0628
     23 N          -4.1818    2.2172   -2.0725 N.pl3   1  LIG1       -0.3426
     24 H          -3.9228    1.2821   -2.3566 H       1  LIG1        0.1437
     25 H          -4.3525    2.8612   -2.8323 H       1  LIG1        0.1437
     26 C          -8.0321    2.7808    2.0428 C.3     1  LIG1       -0.0377
     27 H          -7.6671    2.2487    2.9217 H       1  LIG1        0.0278
     28 H          -9.0107    2.3712    1.7836 H       1  LIG1        0.0278
     29 H          -8.1517    3.8337    2.2944 H       1  LIG1        0.0278
     30 C          -6.8894    6.1003   -0.3282 C.ar    1  LIG1        0.1261
     31 C          -7.5443    4.8571   -0.1397 C.ar    1  LIG1        0.0405
     32 C          -8.9254    4.8850   -0.0288 C.ar    1  LIG1       -0.0443
     33 C          -9.6501    6.0791   -0.0668 C.ar    1  LIG1       -0.0236
     34 C          -8.8945    7.2420   -0.2482 C.ar    1  LIG1        0.0793
     35 N          -7.5648    7.2471   -0.3701 N.ar    1  LIG1       -0.2314
     36 H          -9.4593    3.9491    0.0925 H       1  LIG1        0.0628
     37 N          -5.5263    6.1867   -0.4353 N.pl3   1  LIG1       -0.3426
     38 H          -5.0680    5.3768   -0.8300 H       1  LIG1        0.1437
     39 H          -5.2001    7.0953   -0.7289 H       1  LIG1        0.1437
     40 C         -11.1534    6.1029    0.1323 C.3     1  LIG1       -0.0377
     41 H         -11.4981    5.1169    0.4448 H       1  LIG1        0.0278
     42 H         -11.6625    6.3912   -0.7889 H       1  LIG1        0.0278
     43 H         -11.4163    6.8272    0.9049 H       1  LIG1        0.0278
     44 C         -10.4634    8.9401   -1.3082 C.ar    1  LIG1        0.1254
     45 C          -9.5467    8.5878   -0.2939 C.ar    1  LIG1        0.0404
     46 C          -9.2212    9.5575    0.6395 C.ar    1  LIG1       -0.0449
     47 C          -9.8291   10.8154    0.6094 C.ar    1  LIG1       -0.0316
     48 C         -10.7454   11.0275   -0.4133 C.ar    1  LIG1        0.0326
     49 N         -11.0481   10.1318   -1.3524 N.ar    1  LIG1       -0.2398
     50 H          -8.4839    9.3185    1.3985 H       1  LIG1        0.0628
     51 H         -11.2566   11.9815   -0.4944 H       1  LIG1        0.0833
     52 N         -10.8076    8.0452   -2.3080 N.pl3   1  LIG1       -0.3426
     53 H         -11.2575    8.4931   -3.0941 H       1  LIG1        0.1437
     54 H         -10.1017    7.3630   -2.5504 H       1  LIG1        0.1437
     55 C          -9.5057   11.8847    1.6332 C.3     1  LIG1       -0.0383
     56 H         -10.0343   12.8085    1.3973 H       1  LIG1        0.0278
     57 H          -8.4347   12.0920    1.6431 H       1  LIG1        0.0278
     58 H          -9.8023   11.5627    2.6327 H       1  LIG1        0.0278
@<TRIPOS>BOND
     1    53    52    1
     2    25    23    1
     3    54    52    1
     4    24    23    1
     5    52    44    1
     6    23    16    1
     7    49    44   ar
     8    49    48   ar
     9    44    45   ar
    10    16    21   ar
    11    16    17   ar
    12    21    20   ar
    13    11     9    1
    14    10     9    1
    15    38    37    1
    16    42    40    1
    17    39    37    1
    18     9     1    1
    19    14    12    1
    20    51    48    1
    21    37    30    1
    22     1     6   ar
    23     1     2   ar
    24    48    47   ar
    25     6     5   ar
    26    35    30   ar
    27    35    34   ar
    28    30    31   ar
    29    45    34    1
    30    45    46   ar
    31     8     2    1
    32     2     3   ar
    33    34    33   ar
    34     5    17    1
    35     5     4   ar
    36    31    20    1
    37    31    32   ar
    38    17    18   ar
    39    20    19   ar
    40    33    32   ar
    41    33    40    1
    42     3     4   ar
    43     3     7    1
    44    32    36    1
    45     4    12    1
    46    40    41    1
    47    40    43    1
    48    12    15    1
    49    12    13    1
    50    47    46   ar
    51    47    55    1
    52    46    50    1
    53    18    19   ar
    54    18    22    1
    55    19    26    1
    56    56    55    1
    57    55    57    1
    58    55    58    1
    59    28    26    1
    60    26    29    1
    61    26    27    1
