@<TRIPOS>MOLECULE
mol_data/opt/m06hf/geoms/mol2/6hi6hi6hi.out
 44 46 0 0 0
SMALL
GASTEIGER

@<TRIPOS>ATOM
      1 C          -4.2409   -1.9380   -1.2291 C.ar    1  LIG1        0.1168
      2 C          -3.0399   -2.1668   -0.5344 C.ar    1  LIG1       -0.0218
      3 C          -2.6367   -1.2126    0.3746 C.ar    1  LIG1       -0.0536
      4 C          -3.3779   -0.0417    0.5883 C.ar    1  LIG1       -0.0242
      5 C          -4.5325    0.1045   -0.1855 C.ar    1  LIG1        0.0793
      6 N          -4.9514   -0.8334   -1.0497 N.ar    1  LIG1       -0.2321
      7 H          -1.7324   -1.3739    0.9505 H       1  LIG1        0.0622
      8 H          -2.4761   -3.0758   -0.6941 H       1  LIG1        0.0652
      9 N          -4.7598   -2.8748   -2.1000 N.pl3   1  LIG1       -0.3431
     10 H          -5.4633   -2.5101   -2.7260 H       1  LIG1        0.1437
     11 H          -4.1099   -3.5222   -2.5180 H       1  LIG1        0.1437
     12 C          -2.9316    0.9473    1.6510 C.3     1  LIG1       -0.0377
     13 H          -3.7859    1.4785    2.0683 H       1  LIG1        0.0278
     14 H          -2.2292    1.6803    1.2481 H       1  LIG1        0.0278
     15 H          -2.4291    0.4074    2.4542 H       1  LIG1        0.0278
     16 C          -6.8013    1.2457   -0.0108 C.ar    1  LIG1        0.1261
     17 C          -5.3884    1.3261   -0.1078 C.ar    1  LIG1        0.0405
     18 C          -4.8392    2.5949   -0.1299 C.ar    1  LIG1       -0.0443
     19 C          -5.6169    3.7545   -0.0388 C.ar    1  LIG1       -0.0236
     20 C          -6.9971    3.5577    0.0623 C.ar    1  LIG1        0.0793
     21 N          -7.5517    2.3378    0.0850 N.ar    1  LIG1       -0.2314
     22 H          -3.7628    2.6929   -0.2212 H       1  LIG1        0.0628
     23 N          -7.4502    0.0410    0.0364 N.pl3   1  LIG1       -0.3426
     24 H          -8.4480    0.1076   -0.0969 H       1  LIG1        0.1437
     25 H          -6.9748   -0.7233   -0.4250 H       1  LIG1        0.1437
     26 C          -4.9389    5.1128   -0.0011 C.3     1  LIG1       -0.0377
     27 H          -5.5300    5.8232    0.5753 H       1  LIG1        0.0278
     28 H          -4.7927    5.5170   -1.0052 H       1  LIG1        0.0278
     29 H          -3.9584    5.0124    0.4662 H       1  LIG1        0.0278
     30 C          -9.0072    4.7173    1.1027 C.ar    1  LIG1        0.1254
     31 C          -7.9570    4.6995    0.1459 C.ar    1  LIG1        0.0404
     32 C          -7.8690    5.7770   -0.7197 C.ar    1  LIG1       -0.0449
     33 C          -8.7501    6.8591   -0.6297 C.ar    1  LIG1       -0.0316
     34 C          -9.7077    6.7781    0.3717 C.ar    1  LIG1        0.0326
     35 N          -9.8444    5.7471    1.2037 N.ar    1  LIG1       -0.2398
     36 H          -7.1047    5.7710   -1.4901 H       1  LIG1        0.0628
     37 H         -10.4192    7.5864    0.5087 H       1  LIG1        0.0833
     38 N          -9.1766    3.6926    1.9957 N.pl3   1  LIG1       -0.3426
     39 H         -10.0437    3.7447    2.5091 H       1  LIG1        0.1437
     40 H          -8.8775    2.7815    1.6746 H       1  LIG1        0.1437
     41 C          -8.6622    8.0435   -1.5707 C.3     1  LIG1       -0.0383
     42 H          -9.4315    8.7767   -1.3283 H       1  LIG1        0.0278
     43 H          -8.8042    7.7254   -2.6049 H       1  LIG1        0.0278
     44 H          -7.6876    8.5286   -1.4915 H       1  LIG1        0.0278
@<TRIPOS>BOND
     1    10     9    1
     2    43    41    1
     3    11     9    1
     4     9     1    1
     5    41    44    1
     6    41    42    1
     7    41    33    1
     8    36    32    1
     9     1     6   ar
    10     1     2   ar
    11     6     5   ar
    12    28    26    1
    13    32    33   ar
    14    32    31   ar
    15     8     2    1
    16    33    34   ar
    17     2     3   ar
    18    25    23    1
    19    22    18    1
    20     5    17    1
    21     5     4   ar
    22    18    17   ar
    23    18    19   ar
    24    17    16   ar
    25    24    23    1
    26    19    26    1
    27    19    20   ar
    28    16    23    1
    29    16    21   ar
    30    26    29    1
    31    26    27    1
    32    20    21   ar
    33    20    31    1
    34    31    30   ar
    35    34    37    1
    36    34    35   ar
    37     3     4   ar
    38     3     7    1
    39     4    12    1
    40    30    35   ar
    41    30    38    1
    42    14    12    1
    43    12    13    1
    44    12    15    1
    45    40    38    1
    46    38    39    1
