@<TRIPOS>MOLECULE
mol_data/opt/m06hf/geoms/mol2/6hl12aa4le4ai-.out
 53 56 0 0 0
SMALL
GASTEIGER

@<TRIPOS>ATOM
      1 C          -4.2019   -2.2993    0.3820 C.ar    1  LIG1        0.1172
      2 C          -2.8028   -2.3246    0.3371 C.ar    1  LIG1       -0.0186
      3 C          -2.1268   -1.1295    0.1440 C.ar    1  LIG1       -0.0145
      4 C          -2.8455    0.0562    0.0134 C.ar    1  LIG1        0.1491
      5 C          -4.2454   -0.0171    0.0769 C.ar    1  LIG1        0.1495
      6 N          -4.8871   -1.1701    0.2513 N.ar    1  LIG1       -0.2257
      7 H          -1.0464   -1.1294    0.1035 H       1  LIG1        0.0656
      8 H          -2.2645   -3.2540    0.4598 H       1  LIG1        0.0653
      9 N          -4.9433   -3.4506    0.6135 N.pl3   1  LIG1       -0.3431
     10 H          -5.9243   -3.3276    0.4029 H       1  LIG1        0.1437
     11 H          -4.5515   -4.3102    0.2587 H       1  LIG1        0.1437
     12 O          -2.2831    1.2813   -0.1729 O.3     1  LIG1       -0.4929
     13 C          -0.8728    1.3498   -0.2452 C.3     1  LIG1        0.0789
     14 H          -0.6318    2.3980   -0.4010 H       1  LIG1        0.0660
     15 H          -0.4210    1.0022    0.6873 H       1  LIG1        0.0660
     16 H          -0.5000    0.7581   -1.0851 H       1  LIG1        0.0660
     17 C          -5.0840    1.1860   -0.0556 C.ar    1  LIG1        0.1575
     18 C          -4.8352    2.5140   -0.2532 C.ar    1  LIG1       -0.0136
     19 C          -6.1123    3.1587   -0.2903 C.ar    1  LIG1       -0.0151
     20 C          -7.0394    2.1720   -0.1119 C.ar    1  LIG1        0.1393
     21 O          -6.4152    0.9848    0.0282 O.2     1  LIG1       -0.4531
     22 H          -3.8652    2.9628   -0.3571 H       1  LIG1        0.0656
     23 H          -6.3237    4.2024   -0.4285 H       1  LIG1        0.0656
     24 C          -9.2977    3.2753   -0.1281 C.ar    1  LIG1        0.1314
     25 C         -10.6837    3.1783   -0.0450 C.ar    1  LIG1       -0.0104
     26 C          -8.5049    2.1177   -0.0391 C.ar    1  LIG1        0.0600
     27 C         -11.3147    1.9437    0.1280 C.ar    1  LIG1        0.0010
     28 H         -11.3053    4.0581   -0.1351 H       1  LIG1        0.0661
     29 C          -9.1359    0.8904    0.1321 C.ar    1  LIG1       -0.0316
     30 C         -10.5276    0.7872    0.2164 C.ar    1  LIG1        0.0333
     31 H          -8.5286   -0.0015    0.2121 H       1  LIG1        0.0638
     32 O          -8.6453    4.4492   -0.2993 O.3     1  LIG1       -0.4944
     33 C          -9.4095    5.6390   -0.3681 C.3     1  LIG1        0.0788
     34 H          -8.6918    6.4456   -0.4894 H       1  LIG1        0.0660
     35 H         -10.0856    5.6133   -1.2258 H       1  LIG1        0.0660
     36 H          -9.9772    5.7836    0.5537 H       1  LIG1        0.0660
     37 C         -11.1084   -0.5186    0.4324 C.1     1  LIG1       -0.0690
     38 C         -11.5574   -1.6182    0.6175 C.1     1  LIG1       -0.1139
     39 H         -11.9633   -2.5871    0.7923 H       1  LIG1        0.1232
     40 C         -13.4627    2.7811    1.0940 C.ar    1  LIG1       -0.0540
     41 C         -14.8516    2.7721    1.1676 C.ar    1  LIG1       -0.0609
     42 C         -12.8043    1.9111    0.2221 C.ar    1  LIG1       -0.0164
     43 C         -15.5871    1.8981    0.3728 C.ar    1  LIG1       -0.0588
     44 H         -15.3599    3.4381    1.8527 H       1  LIG1        0.0618
     45 C         -13.5532    1.0387   -0.5700 C.ar    1  LIG1       -0.0511
     46 C         -14.9456    1.0236   -0.5058 C.ar    1  LIG1       -0.0499
     47 H         -13.0390    0.3663   -1.2465 H       1  LIG1        0.0626
     48 H         -16.6688    1.8905    0.4377 H       1  LIG1        0.0620
     49 H         -12.8836    3.4407    1.7285 H       1  LIG1        0.0624
     50 C         -15.7448    0.0899   -1.3979 C.3     1  LIG1       -0.0397
     51 H         -15.1932   -0.8336   -1.5738 H       1  LIG1        0.0278
     52 H         -15.9392    0.5633   -2.3623 H       1  LIG1        0.0278
     53 H         -16.7010   -0.1555   -0.9363 H       1  LIG1        0.0278
@<TRIPOS>BOND
     1    52    50    1
     2    51    50    1
     3    50    53    1
     4    50    46    1
     5    47    45    1
     6    35    33    1
     7    16    13    1
     8    45    46   ar
     9    45    42   ar
    10    46    43   ar
    11    34    33    1
    12    23    19    1
    13    14    13    1
    14    33    32    1
    15    33    36    1
    16    22    18    1
    17    32    24    1
    18    19    18   ar
    19    19    20   ar
    20    18    17   ar
    21    13    12    1
    22    13    15    1
    23    12     4    1
    24    28    25    1
    25    24    25   ar
    26    24    26   ar
    27    20    26    1
    28    20    21   ar
    29    17    21   ar
    30    17     5    1
    31    25    27   ar
    32    26    29   ar
    33     4     5   ar
    34     4     3   ar
    35     5     6   ar
    36     7     3    1
    37    27    30   ar
    38    27    42    1
    39    29    31    1
    40    29    30   ar
    41     3     2   ar
    42    30    37    1
    43    42    40   ar
    44     6     1   ar
    45    11     9    1
    46     2     1   ar
    47     2     8    1
    48    43    48    1
    49    43    41   ar
    50     1     9    1
    51    10     9    1
    52    37    38    3
    53    38    39    1
    54    40    41   ar
    55    40    49    1
    56    41    44    1
