@<TRIPOS>MOLECULE
mol_data/opt/m06hf/geoms/mol2/6hl13la6ea-6ia4dd-4aa4af4ae-.out
 97 104 0 0 0
SMALL
GASTEIGER

@<TRIPOS>ATOM
      1 C          -3.9283   -1.3981   -1.9833 C.ar    1  LIG1        0.1171
      2 C          -2.5981   -1.7233   -1.6957 C.ar    1  LIG1       -0.0186
      3 C          -1.9323   -0.9813   -0.7308 C.ar    1  LIG1       -0.0145
      4 C          -2.5907    0.0577   -0.0757 C.ar    1  LIG1        0.1476
      5 C          -3.9127    0.3320   -0.4471 C.ar    1  LIG1        0.1342
      6 N          -4.5454   -0.3979   -1.3696 N.ar    1  LIG1       -0.2272
      7 H          -0.9087   -1.2266   -0.4829 H       1  LIG1        0.0656
      8 H          -2.1080   -2.5416   -2.2043 H       1  LIG1        0.0653
      9 N          -4.6885   -2.1261   -2.8945 N.pl3   1  LIG1       -0.3431
     10 H          -5.4776   -1.5990   -3.2435 H       1  LIG1        0.1437
     11 H          -4.1664   -2.5918   -3.6225 H       1  LIG1        0.1437
     12 O          -2.0596    0.8150    0.9118 O.3     1  LIG1       -0.4929
     13 C          -0.7037    0.6220    1.2541 C.3     1  LIG1        0.0789
     14 H          -0.4950    1.3473    2.0360 H       1  LIG1        0.0660
     15 H          -0.5380   -0.3894    1.6343 H       1  LIG1        0.0660
     16 H          -0.0565    0.8072    0.3911 H       1  LIG1        0.0660
     17 C          -4.7464    1.3832    0.1694 C.ar    1  LIG1        0.1113
     18 C          -4.5836    2.5196    0.9686 C.ar    1  LIG1        0.1475
     19 C          -5.8627    3.0664    1.1959 C.ar    1  LIG1        0.0062
     20 C          -6.7824    2.2595    0.5333 C.ar    1  LIG1        0.0532
     21 N          -6.0793    1.2758   -0.0733 N.ar    1  LIG1       -0.3499
     22 H          -6.4479    0.5340   -0.6563 H       1  LIG1        0.1661
     23 O          -3.4421    3.0804    1.4566 O.3     1  LIG1       -0.4929
     24 C          -2.6331    3.6821    0.4551 C.3     1  LIG1        0.0789
     25 H          -1.7764    4.1131    0.9703 H       1  LIG1        0.0660
     26 H          -2.2938    2.9324   -0.2622 H       1  LIG1        0.0660
     27 H          -3.1944    4.4654   -0.0602 H       1  LIG1        0.0660
     28 H          -6.0540    3.9391    1.7966 H       1  LIG1        0.0676
     29 C          -9.1140    1.4133   -0.0806 C.ar    1  LIG1        0.1229
     30 C          -8.2439    2.3867    0.4501 C.ar    1  LIG1        0.0323
     31 C          -8.8533    3.5504    0.9378 C.ar    1  LIG1       -0.0479
     32 C         -10.2252    3.7006    0.8888 C.ar    1  LIG1       -0.0349
     33 C         -10.9950    2.6758    0.3225 C.ar    1  LIG1        0.0741
     34 N         -10.4384    1.5656   -0.1427 N.ar    1  LIG1       -0.2377
     35 H          -8.2384    4.3349    1.3575 H       1  LIG1        0.0626
     36 C          -8.6360    0.1433   -0.6029 C.1     1  LIG1       -0.0491
     37 C          -8.2498   -0.9118   -1.0314 C.1     1  LIG1       -0.1124
     38 H          -7.8911   -1.8479   -1.3958 H       1  LIG1        0.1232
     39 H         -10.7008    4.5843    1.2915 H       1  LIG1        0.0639
     40 C         -13.3424    1.7177    0.4763 C.ar    1  LIG1        0.0480
     41 C         -12.4771    2.8008    0.2092 C.ar    1  LIG1        0.0214
     42 C         -13.0434    4.0158   -0.1568 C.ar    1  LIG1       -0.0488
     43 C         -14.4241    4.1432   -0.2669 C.ar    1  LIG1       -0.0350
     44 C         -15.1967    3.0149   -0.0129 C.ar    1  LIG1        0.0726
     45 N         -14.6589    1.8516    0.3630 N.ar    1  LIG1       -0.2512
     46 H         -12.4069    4.8648   -0.3747 H       1  LIG1        0.0625
     47 C         -12.8499    0.3566    0.9228 C.3     1  LIG1       -0.0217
     48 H         -12.1073    0.4575    1.7149 H       1  LIG1        0.0293
     49 H         -12.3768   -0.1599    0.0886 H       1  LIG1        0.0293
     50 H         -13.7104   -0.2053    1.2783 H       1  LIG1        0.0293
     51 H         -14.8666    5.0896   -0.5378 H       1  LIG1        0.0639
     52 C         -17.4658    3.8419   -0.9004 C.ar    1  LIG1        0.0616
     53 C         -18.8619    3.7921   -0.8841 C.ar    1  LIG1       -0.0348
     54 C         -16.6935    3.0131   -0.0758 C.ar    1  LIG1        0.0189
     55 C         -19.5425    2.9063   -0.0551 C.ar    1  LIG1        0.0007
     56 H         -19.4202    4.4674   -1.5189 H       1  LIG1        0.0637
     57 C         -17.3746    2.1061    0.7361 C.ar    1  LIG1       -0.0333
     58 C         -18.7650    2.0551    0.7474 C.ar    1  LIG1        0.0602
     59 H         -16.7945    1.4283    1.3472 H       1  LIG1        0.0637
     60 N         -16.4526    5.5394   -2.5864 N.1     1  LIG1       -0.1908
     61 C         -16.8716    4.7799   -1.8349 C.1     1  LIG1        0.0998
     62 N         -19.8679    0.2762    2.2880 N.1     1  LIG1       -0.1908
     63 C         -19.3961    1.0652    1.6014 C.1     1  LIG1        0.0998
     64 C         -21.7320    2.8656   -1.2599 C.ar    1  LIG1       -0.0534
     65 C         -23.1215    2.8752   -1.2681 C.ar    1  LIG1       -0.0535
     66 C         -21.0327    2.8839   -0.0504 C.ar    1  LIG1       -0.0166
     67 C         -23.8373    2.9034   -0.0685 C.ar    1  LIG1       -0.0177
     68 H         -23.6571    2.8300   -2.2076 H       1  LIG1        0.0624
     69 C         -21.7449    2.9126    1.1510 C.ar    1  LIG1       -0.0534
     70 C         -23.1340    2.9218    1.1388 C.ar    1  LIG1       -0.0535
     71 H         -21.2156    2.9487    2.0944 H       1  LIG1        0.0624
     72 H         -21.1868    2.8130   -2.1942 H       1  LIG1        0.0624
     73 H         -23.6788    2.9735    2.0728 H       1  LIG1        0.0624
     74 C         -26.0324    3.7635   -0.9302 C.ar    1  LIG1       -0.0532
     75 C         -27.4227    3.7642   -0.9103 C.ar    1  LIG1       -0.0500
     76 C         -25.3291    2.9148   -0.0759 C.ar    1  LIG1       -0.0144
     77 C         -28.1476    2.9341   -0.0547 C.ar    1  LIG1        0.0236
     78 H         -27.9689    4.4161   -1.5809 H       1  LIG1        0.0625
     79 C         -26.0372    2.0701    0.7796 C.ar    1  LIG1       -0.0119
     80 C         -27.4289    2.0752    0.7896 C.ar    1  LIG1        0.1251
     81 H         -25.4977    1.3863    1.4265 H       1  LIG1        0.0660
     82 H         -25.4949    4.4326   -1.5891 H       1  LIG1        0.0624
     83 O         -28.1349    1.2543    1.6133 O.3     1  LIG1       -0.5061
     84 H         -27.5405    0.7266    2.1570 H       1  LIG1        0.2922
     85 C         -30.2830    4.2286   -0.0502 C.ar    1  LIG1       -0.0538
     86 C         -31.6729    4.3077   -0.0726 C.ar    1  LIG1       -0.0600
     87 C         -29.6394    2.9883   -0.0365 C.ar    1  LIG1       -0.0132
     88 C         -32.4375    3.1485   -0.0776 C.ar    1  LIG1       -0.0463
     89 H         -32.1573    5.2749   -0.0785 H       1  LIG1        0.0618
     90 C         -30.4082    1.8232   -0.0340 C.ar    1  LIG1       -0.0385
     91 C         -31.8019    1.9027   -0.0559 C.ar    1  LIG1        0.0253
     92 H         -29.9294    0.8548   -0.0116 H       1  LIG1        0.0636
     93 H         -33.5179    3.1922   -0.0930 H       1  LIG1        0.0630
     94 H         -29.6898    5.1341   -0.0221 H       1  LIG1        0.0624
     95 C         -32.5903    0.6906   -0.0583 C.1     1  LIG1       -0.0696
     96 C         -33.2491   -0.3145   -0.0589 C.1     1  LIG1       -0.1139
     97 H         -33.8301   -1.2071   -0.0585 H       1  LIG1        0.1232
@<TRIPOS>BOND
     1    11     9    1
     2    10     9    1
     3     9     1    1
     4    60    61    3
     5    68    65    1
     6     8     2    1
     7    72    64    1
     8     1     2   ar
     9     1     6   ar
    10    61    52    1
    11     2     3   ar
    12    82    74    1
    13    78    75    1
    14    56    53    1
    15    38    37    1
    16     6     5   ar
    17    65    64   ar
    18    65    67   ar
    19    64    66   ar
    20    37    36    3
    21    74    75   ar
    22    74    76   ar
    23    75    77   ar
    24    52    53   ar
    25    52    54   ar
    26    53    55   ar
    27     3     7    1
    28     3     4   ar
    29    22    21    1
    30    36    29    1
    31    51    43    1
    32     5     4   ar
    33     5    17    1
    34    46    42    1
    35    43    42   ar
    36    43    44   ar
    37    26    24    1
    38    42    41   ar
    39    34    29   ar
    40    34    33   ar
    41    93    88    1
    42    29    30   ar
    43    89    86    1
    44    88    86   ar
    45    88    91   ar
    46    76    67    1
    47    76    79   ar
    48    54    44    1
    49    54    57   ar
    50     4    12    1
    51    21    17   ar
    52    21    20   ar
    53    86    85   ar
    54    67    70   ar
    55    27    24    1
    56    96    97    1
    57    96    95    3
    58    95    91    1
    59    91    90   ar
    60    55    66    1
    61    55    58   ar
    62    77    87    1
    63    77    80   ar
    64    66    69   ar
    65    85    87   ar
    66    85    94    1
    67    87    90   ar
    68    90    92    1
    69    44    45   ar
    70    49    47    1
    71    17    18   ar
    72    41    33    1
    73    41    40   ar
    74    33    32   ar
    75    45    40   ar
    76    16    13    1
    77    30    20    1
    78    30    31   ar
    79    24    25    1
    80    24    23    1
    81    40    47    1
    82    20    19   ar
    83    57    58   ar
    84    57    59    1
    85    58    63    1
    86    79    80   ar
    87    79    81    1
    88    80    83    1
    89    32    31   ar
    90    32    39    1
    91    12    13    1
    92    47    50    1
    93    47    48    1
    94    31    35    1
    95    18    19   ar
    96    18    23    1
    97    70    69   ar
    98    70    73    1
    99    69    71    1
   100    19    28    1
   101    13    15    1
   102    13    14    1
   103    63    62    3
   104    83    84    1
