@<TRIPOS>MOLECULE
mol_data/opt/m06hf/geoms/mol2/6hl6hl6hl.out
 47 49 0 0 0
SMALL
GASTEIGER

@<TRIPOS>ATOM
      1 C          -4.2878   -2.0606   -1.2228 C.ar    1  LIG1        0.1170
      2 C          -3.0014   -2.2212   -0.6975 C.ar    1  LIG1       -0.0186
      3 C          -2.4599   -1.1810    0.0386 C.ar    1  LIG1       -0.0146
      4 C          -3.1906   -0.0097    0.2353 C.ar    1  LIG1        0.1462
      5 C          -4.4710    0.0768   -0.3373 C.ar    1  LIG1        0.1179
      6 N          -4.9789   -0.9417   -1.0373 N.ar    1  LIG1       -0.2287
      7 H          -1.4706   -1.2884    0.4624 H       1  LIG1        0.0656
      8 H          -2.4527   -3.1400   -0.8517 H       1  LIG1        0.0653
      9 N          -4.9250   -3.0758   -1.9213 N.pl3   1  LIG1       -0.3431
     10 H          -5.6941   -2.7473   -2.4882 H       1  LIG1        0.1437
     11 H          -4.3240   -3.7369   -2.3902 H       1  LIG1        0.1437
     12 O          -2.7290    1.0512    0.9556 O.3     1  LIG1       -0.4930
     13 C          -1.6166    0.8390    1.8054 C.3     1  LIG1        0.0789
     14 H          -1.5231    1.7423    2.4024 H       1  LIG1        0.0660
     15 H          -1.7914   -0.0203    2.4573 H       1  LIG1        0.0660
     16 H          -0.7029    0.6886    1.2248 H       1  LIG1        0.0660
     17 C          -6.7224    1.2105   -0.0443 C.ar    1  LIG1        0.1264
     18 C          -5.3204    1.2914   -0.1914 C.ar    1  LIG1        0.0470
     19 C          -4.7573    2.5648   -0.2059 C.ar    1  LIG1       -0.0052
     20 C          -5.5426    3.6999   -0.0573 C.ar    1  LIG1        0.1468
     21 C          -6.9298    3.5302    0.1000 C.ar    1  LIG1        0.1180
     22 N          -7.4630    2.3090    0.1006 N.ar    1  LIG1       -0.2280
     23 H          -3.6872    2.6496   -0.3202 H       1  LIG1        0.0662
     24 N          -7.3964    0.0151    0.0098 N.pl3   1  LIG1       -0.3426
     25 H          -8.3946    0.1082   -0.1030 H       1  LIG1        0.1437
     26 H          -6.9493   -0.7525   -0.4723 H       1  LIG1        0.1437
     27 O          -5.0311    4.9664   -0.0435 O.3     1  LIG1       -0.4929
     28 C          -3.6248    5.1007    0.0130 C.3     1  LIG1        0.0789
     29 H          -3.4329    6.1628    0.1420 H       1  LIG1        0.0660
     30 H          -3.2185    4.5427    0.8612 H       1  LIG1        0.0660
     31 H          -3.1611    4.7537   -0.9143 H       1  LIG1        0.0660
     32 C          -9.0043    4.5948    1.0971 C.ar    1  LIG1        0.1257
     33 C          -7.8610    4.6813    0.2695 C.ar    1  LIG1        0.0469
     34 C          -7.6353    5.8816   -0.4082 C.ar    1  LIG1       -0.0059
     35 C          -8.5051    6.9487   -0.2374 C.ar    1  LIG1        0.1389
     36 C          -9.5934    6.7667    0.6140 C.ar    1  LIG1        0.0713
     37 N          -9.8355    5.6327    1.2489 N.ar    1  LIG1       -0.2364
     38 H          -6.7720    5.9581   -1.0515 H       1  LIG1        0.0662
     39 H         -10.2864    7.5863    0.7651 H       1  LIG1        0.0868
     40 N          -9.3077    3.4752    1.8317 N.pl3   1  LIG1       -0.3426
     41 H         -10.2331    3.5021    2.2319 H       1  LIG1        0.1437
     42 H          -8.9857    2.5994    1.4444 H       1  LIG1        0.1437
     43 O          -8.3837    8.1705   -0.8359 O.3     1  LIG1       -0.4936
     44 C          -7.2597    8.3623   -1.6680 C.3     1  LIG1        0.0789
     45 H          -7.3150    9.3902   -2.0167 H       1  LIG1        0.0660
     46 H          -6.3318    8.2096   -1.1085 H       1  LIG1        0.0660
     47 H          -7.2876    7.6812   -2.5237 H       1  LIG1        0.0660
@<TRIPOS>BOND
     1    47    44    1
     2    10     9    1
     3    11     9    1
     4    45    44    1
     5     9     1    1
     6    44    46    1
     7    44    43    1
     8     1     6   ar
     9     1     2   ar
    10    38    34    1
    11     6     5   ar
    12    31    28    1
    13     8     2    1
    14    43    35    1
    15     2     3   ar
    16    26    24    1
    17    34    35   ar
    18    34    33   ar
    19     5    18    1
    20     5     4   ar
    21    23    19    1
    22    35    36   ar
    23    19    18   ar
    24    19    20   ar
    25    18    17   ar
    26    25    24    1
    27    20    27    1
    28    20    21   ar
    29    17    24    1
    30    17    22   ar
    31    27    28    1
    32    28    29    1
    33    28    30    1
    34     3     4   ar
    35     3     7    1
    36    21    22   ar
    37    21    33    1
    38     4    12    1
    39    33    32   ar
    40    36    39    1
    41    36    37   ar
    42    12    13    1
    43    32    37   ar
    44    32    40    1
    45    16    13    1
    46    42    40    1
    47    13    14    1
    48    13    15    1
    49    40    41    1
