@<TRIPOS>MOLECULE
mol_data/opt/m06hf/geoms/mol2/6hl6hl.out
 32 33 0 0 0
SMALL
GASTEIGER

@<TRIPOS>ATOM
      1 C          -4.4986   -2.1126   -0.6488 C.ar    1  LIG1        0.1170
      2 C          -3.1191   -2.1854   -0.4367 C.ar    1  LIG1       -0.0186
      3 C          -2.4577   -1.0359   -0.0365 C.ar    1  LIG1       -0.0146
      4 C          -3.1641    0.1521    0.1406 C.ar    1  LIG1        0.1462
      5 C          -4.5490    0.1442   -0.1065 C.ar    1  LIG1        0.1179
      6 N          -5.1675   -0.9766   -0.4852 N.ar    1  LIG1       -0.2287
      7 H          -1.3920   -1.0745    0.1431 H       1  LIG1        0.0656
      8 H          -2.5870   -3.1172   -0.5684 H       1  LIG1        0.0653
      9 N          -5.2477   -3.2288   -0.9943 N.pl3   1  LIG1       -0.3431
     10 H          -6.1463   -2.9979   -1.3938 H       1  LIG1        0.1437
     11 H          -4.7554   -3.9595   -1.4857 H       1  LIG1        0.1437
     12 O          -2.5838    1.3182    0.5431 O.3     1  LIG1       -0.4930
     13 C          -1.2693    1.2557    1.0626 C.3     1  LIG1        0.0789
     14 H          -1.0550    2.2495    1.4464 H       1  LIG1        0.0660
     15 H          -1.2114    0.5248    1.8731 H       1  LIG1        0.0660
     16 H          -0.5499    1.0032    0.2792 H       1  LIG1        0.0660
     17 C          -6.7105    1.3048    0.5296 C.ar    1  LIG1        0.1257
     18 C          -5.3874    1.3685    0.0378 C.ar    1  LIG1        0.0469
     19 C          -4.8858    2.6177   -0.3352 C.ar    1  LIG1       -0.0059
     20 C          -5.6747    3.7500   -0.1931 C.ar    1  LIG1        0.1389
     21 C          -6.9607    3.5824    0.3187 C.ar    1  LIG1        0.0713
     22 N          -7.4590    2.4065    0.6598 N.ar    1  LIG1       -0.2364
     23 H          -3.8787    2.6770   -0.7204 H       1  LIG1        0.0662
     24 H          -7.5948    4.4527    0.4410 H       1  LIG1        0.0868
     25 N          -7.2921    0.1344    0.9527 N.pl3   1  LIG1       -0.3426
     26 H          -8.2818    0.2235    1.1254 H       1  LIG1        0.1437
     27 H          -6.9679   -0.7060    0.4960 H       1  LIG1        0.1437
     28 O          -5.2998    5.0220   -0.5166 O.3     1  LIG1       -0.4936
     29 C          -3.9618    5.2080   -0.9264 C.3     1  LIG1        0.0789
     30 H          -3.8364    6.2780   -1.0707 H       1  LIG1        0.0660
     31 H          -3.2686    4.8525   -0.1582 H       1  LIG1        0.0660
     32 H          -3.7653    4.6861   -1.8673 H       1  LIG1        0.0660
@<TRIPOS>BOND
     1    32    29    1
     2    11     9    1
     3    10     9    1
     4    30    29    1
     5     9     1    1
     6    29    28    1
     7    29    31    1
     8    23    19    1
     9     1     6   ar
    10     1     2   ar
    11     8     2    1
    12    28    20    1
    13     6     5   ar
    14     2     3   ar
    15    19    20   ar
    16    19    18   ar
    17    20    21   ar
    18     5    18    1
    19     5     4   ar
    20     3     4   ar
    21     3     7    1
    22    18    17   ar
    23     4    12    1
    24    16    13    1
    25    21    24    1
    26    21    22   ar
    27    27    25    1
    28    17    22   ar
    29    17    25    1
    30    12    13    1
    31    25    26    1
    32    13    14    1
    33    13    15    1
