@<TRIPOS>MOLECULE
mol_data/opt/m06hf/geoms/mol2/6hl6hl-.out
 32 33 0 0 0
SMALL
GASTEIGER

@<TRIPOS>ATOM
      1 C          -4.4725   -2.1022   -0.6686 C.ar    1  LIG1        0.1170
      2 C          -3.1719   -2.2118   -0.1498 C.ar    1  LIG1       -0.0186
      3 C          -2.5829   -1.0880    0.4023 C.ar    1  LIG1       -0.0146
      4 C          -3.2913    0.1149    0.4245 C.ar    1  LIG1        0.1462
      5 C          -4.5603    0.1395   -0.1613 C.ar    1  LIG1        0.1179
      6 N          -5.1332   -0.9498   -0.6760 N.ar    1  LIG1       -0.2287
      7 H          -1.5931   -1.1489    0.8364 H       1  LIG1        0.0656
      8 H          -2.6569   -3.1626   -0.1627 H       1  LIG1        0.0653
      9 N          -5.1462   -3.2058   -1.1692 N.pl3   1  LIG1       -0.3431
     10 H          -5.9616   -2.9566   -1.7112 H       1  LIG1        0.1437
     11 H          -4.5805   -3.9349   -1.5763 H       1  LIG1        0.1437
     12 O          -2.8500    1.2521    1.0204 O.3     1  LIG1       -0.4930
     13 C          -1.4722    1.5603    0.8979 C.3     1  LIG1        0.0789
     14 H          -1.3811    2.6185    1.1270 H       1  LIG1        0.0660
     15 H          -0.8784    0.9764    1.6054 H       1  LIG1        0.0660
     16 H          -1.1288    1.3746   -0.1223 H       1  LIG1        0.0660
     17 C          -4.8353    2.5945   -0.7719 C.ar    1  LIG1        0.1257
     18 C          -5.3454    1.4079   -0.1909 C.ar    1  LIG1        0.0469
     19 C          -6.6266    1.4345    0.3189 C.ar    1  LIG1       -0.0059
     20 C          -7.3594    2.6249    0.3044 C.ar    1  LIG1        0.1389
     21 C          -6.7586    3.7450   -0.2521 C.ar    1  LIG1        0.0713
     22 N          -5.5344    3.7158   -0.7906 N.ar    1  LIG1       -0.2364
     23 H          -7.0682    0.5406    0.7402 H       1  LIG1        0.0662
     24 H          -7.2640    4.7010   -0.2920 H       1  LIG1        0.0868
     25 N          -3.5729    2.6370   -1.3554 N.pl3   1  LIG1       -0.3426
     26 H          -3.2706    1.7668   -1.7731 H       1  LIG1        0.1437
     27 H          -3.4748    3.4371   -1.9660 H       1  LIG1        0.1437
     28 O          -8.6088    2.5895    0.8447 O.3     1  LIG1       -0.4936
     29 C          -9.3491    3.7932    0.8386 C.3     1  LIG1        0.0789
     30 H         -10.3026    3.5611    1.3052 H       1  LIG1        0.0660
     31 H          -8.8345    4.5679    1.4135 H       1  LIG1        0.0660
     32 H          -9.5143    4.1419   -0.1848 H       1  LIG1        0.0660
@<TRIPOS>BOND
     1    27    25    1
     2    26    25    1
     3    10     9    1
     4    11     9    1
     5    25    17    1
     6     9     1    1
     7    22    17   ar
     8    22    21   ar
     9    17    18   ar
    10     6     1   ar
    11     6     5   ar
    12     1     2   ar
    13    24    21    1
    14    21    20   ar
    15    18     5    1
    16    18    19   ar
    17    32    29    1
    18     8     2    1
    19     5     4   ar
    20     2     3   ar
    21    16    13    1
    22    20    19   ar
    23    20    28    1
    24    19    23    1
    25     3     4   ar
    26     3     7    1
    27     4    12    1
    28    29    28    1
    29    29    30    1
    30    29    31    1
    31    13    12    1
    32    13    14    1
    33    13    15    1
