@<TRIPOS>MOLECULE
mol_data/opt/m06hf/geoms/mol2/6hl6hl6hl6hl.out
 62 65 0 0 0
SMALL
GASTEIGER

@<TRIPOS>ATOM
      1 C          -3.9837   -1.9383   -1.7027 C.ar    1  LIG1        0.1170
      2 C          -2.8510   -2.2267   -0.9341 C.ar    1  LIG1       -0.0186
      3 C          -2.4980   -1.3429    0.0719 C.ar    1  LIG1       -0.0146
      4 C          -3.2603   -0.1968    0.2942 C.ar    1  LIG1        0.1462
      5 C          -4.3757    0.0261   -0.5323 C.ar    1  LIG1        0.1179
      6 N          -4.7055   -0.8437   -1.4907 N.ar    1  LIG1       -0.2287
      7 H          -1.6320   -1.5556    0.6837 H       1  LIG1        0.0656
      8 H          -2.2772   -3.1253   -1.1135 H       1  LIG1        0.0653
      9 N          -4.4366   -2.8000   -2.6904 N.pl3   1  LIG1       -0.3431
     10 H          -5.0591   -2.3578   -3.3520 H       1  LIG1        0.1437
     11 H          -3.7397   -3.3921   -3.1168 H       1  LIG1        0.1437
     12 O          -2.9863    0.7143    1.2695 O.3     1  LIG1       -0.4930
     13 C          -2.0201    0.3672    2.2443 C.3     1  LIG1        0.0789
     14 H          -2.0416    1.1670    2.9797 H       1  LIG1        0.0660
     15 H          -2.2798   -0.5812    2.7210 H       1  LIG1        0.0660
     16 H          -1.0230    0.3035    1.8007 H       1  LIG1        0.0660
     17 C          -6.6393    1.1773   -0.5743 C.ar    1  LIG1        0.1264
     18 C          -5.2395    1.2307   -0.3832 C.ar    1  LIG1        0.0470
     19 C          -4.6920    2.4675   -0.0598 C.ar    1  LIG1       -0.0052
     20 C          -5.4932    3.5925    0.0891 C.ar    1  LIG1        0.1468
     21 C          -6.8759    3.4503   -0.1079 C.ar    1  LIG1        0.1180
     22 N          -7.3955    2.2641   -0.4266 N.ar    1  LIG1       -0.2280
     23 H          -3.6248    2.5347    0.0897 H       1  LIG1        0.0662
     24 N          -7.3021    0.0124   -0.8676 N.pl3   1  LIG1       -0.3426
     25 H          -8.2517    0.1514   -1.1783 H       1  LIG1        0.1437
     26 H          -6.7551   -0.6870   -1.3505 H       1  LIG1        0.1437
     27 O          -4.9959    4.8202    0.4268 O.3     1  LIG1       -0.4929
     28 C          -3.6954    4.8626    0.9845 C.3     1  LIG1        0.0789
     29 H          -3.5702    5.8706    1.3721 H       1  LIG1        0.0660
     30 H          -3.6043    4.1352    1.7951 H       1  LIG1        0.0660
     31 H          -2.9362    4.6666    0.2230 H       1  LIG1        0.0660
     32 C          -9.1292    4.4375    0.5274 C.ar    1  LIG1        0.1264
     33 C          -7.8183    4.5957    0.0230 C.ar    1  LIG1        0.0470
     34 C          -7.4408    5.8787   -0.3627 C.ar    1  LIG1       -0.0052
     35 C          -8.3100    6.9540   -0.2349 C.ar    1  LIG1        0.1468
     36 C          -9.5918    6.7114    0.2854 C.ar    1  LIG1        0.1180
     37 N          -9.9519    5.4794    0.6448 N.ar    1  LIG1       -0.2280
     38 H          -6.4445    6.0240   -0.7514 H       1  LIG1        0.0662
     39 N          -9.6134    3.2319    0.9688 N.pl3   1  LIG1       -0.3426
     40 H         -10.6147    3.2169    1.0906 H       1  LIG1        0.1437
     41 H          -9.1840    2.4182    0.5486 H       1  LIG1        0.1437
     42 O          -7.9702    8.2325   -0.5808 O.3     1  LIG1       -0.4929
     43 C          -6.6017    8.4973   -0.8203 C.3     1  LIG1        0.0789
     44 H          -6.5201    9.5770   -0.9165 H       1  LIG1        0.0660
     45 H          -5.9909    8.1485    0.0168 H       1  LIG1        0.0660
     46 H          -6.2668    8.0206   -1.7455 H       1  LIG1        0.0660
     47 C         -11.5084    7.8026    1.5391 C.ar    1  LIG1        0.1257
     48 C         -10.6013    7.7943    0.4542 C.ar    1  LIG1        0.0469
     49 C         -10.6908    8.8272   -0.4806 C.ar    1  LIG1       -0.0059
     50 C         -11.6327    9.8325   -0.3144 C.ar    1  LIG1        0.1389
     51 C         -12.4690    9.7578    0.7972 C.ar    1  LIG1        0.0713
     52 N         -12.4125    8.7783    1.6843 N.ar    1  LIG1       -0.2364
     53 H         -10.0099    8.8253   -1.3182 H       1  LIG1        0.0662
     54 H         -13.2127   10.5317    0.9491 H       1  LIG1        0.0868
     55 N         -11.4865    6.8520    2.5296 N.pl3   1  LIG1       -0.3426
     56 H         -12.2901    6.8917    3.1380 H       1  LIG1        0.1437
     57 H         -11.1492    5.9414    2.2498 H       1  LIG1        0.1437
     58 O         -11.8126   10.8933   -1.1566 O.3     1  LIG1       -0.4936
     59 C         -10.8907   11.0222   -2.2176 C.3     1  LIG1        0.0789
     60 H         -11.1446   11.9484   -2.7267 H       1  LIG1        0.0660
     61 H          -9.8669   11.0767   -1.8356 H       1  LIG1        0.0660
     62 H         -10.9769   10.1841   -2.9146 H       1  LIG1        0.0660
@<TRIPOS>BOND
     1    10     9    1
     2    11     9    1
     3    62    59    1
     4    60    59    1
     5     9     1    1
     6    59    61    1
     7    59    58    1
     8    46    43    1
     9     1     6   ar
    10     1     2   ar
    11     6     5   ar
    12    26    24    1
    13    53    49    1
    14    25    24    1
    15    58    50    1
    16     8     2    1
    17     2     3   ar
    18    44    43    1
    19    24    17    1
    20    43    42    1
    21    43    45    1
    22    38    34    1
    23    42    35    1
    24    17    22   ar
    25    17    18   ar
    26     5    18    1
    27     5     4   ar
    28    49    50   ar
    29    49    48   ar
    30    22    21   ar
    31    18    19   ar
    32    34    35   ar
    33    34    33   ar
    34    50    51   ar
    35    35    36   ar
    36    21    33    1
    37    21    20   ar
    38    19    20   ar
    39    19    23    1
    40    33    32   ar
    41     3     4   ar
    42     3     7    1
    43    20    27    1
    44    31    28    1
    45    36    48    1
    46    36    37   ar
    47     4    12    1
    48    27    28    1
    49    48    47   ar
    50    32    37   ar
    51    32    39    1
    52    41    39    1
    53    51    54    1
    54    51    52   ar
    55    39    40    1
    56    28    29    1
    57    28    30    1
    58    12    13    1
    59    47    52   ar
    60    47    55    1
    61    16    13    1
    62    13    15    1
    63    13    14    1
    64    57    55    1
    65    55    56    1
