@<TRIPOS>MOLECULE
mol_data/opt/m06hf/geoms/mol2/6hl6hl6hl6hl-.out
 62 65 0 0 0
SMALL
GASTEIGER

@<TRIPOS>ATOM
      1 C           7.0410   -1.4720   -0.5972 C.ar    1  LIG1        0.1170
      2 C           7.8966   -0.5568    0.0242 C.ar    1  LIG1       -0.0186
      3 C           7.3342    0.5298    0.6729 C.ar    1  LIG1       -0.0146
      4 C           5.9494    0.6926    0.6921 C.ar    1  LIG1        0.1462
      5 C           5.1609   -0.2675    0.0352 C.ar    1  LIG1        0.1179
      6 N           5.7227   -1.3114   -0.5799 N.ar    1  LIG1       -0.2287
      7 H           7.9787    1.2433    1.1678 H       1  LIG1        0.0656
      8 H           8.9674   -0.7044    0.0102 H       1  LIG1        0.0653
      9 N           7.5179   -2.6154   -1.2206 N.pl3   1  LIG1       -0.3431
     10 H           6.8572   -3.0236   -1.8672 H       1  LIG1        0.1437
     11 H           8.4620   -2.5699   -1.5736 H       1  LIG1        0.1437
     12 O           5.3225    1.7281    1.3178 O.3     1  LIG1       -0.4930
     13 C           6.0815    2.5166    2.2164 C.3     1  LIG1        0.0789
     14 H           5.3691    3.1736    2.7080 H       1  LIG1        0.0660
     15 H           6.5752    1.8838    2.9581 H       1  LIG1        0.0660
     16 H           6.8229    3.1155    1.6811 H       1  LIG1        0.0660
     17 C           2.8562   -1.3300    0.0597 C.ar    1  LIG1        0.1264
     18 C           3.6741   -0.1792   -0.0033 C.ar    1  LIG1        0.0470
     19 C           3.0306    1.0502   -0.1096 C.ar    1  LIG1       -0.0052
     20 C           1.6442    1.1367   -0.1327 C.ar    1  LIG1        0.1468
     21 C           0.9062   -0.0558   -0.0537 C.ar    1  LIG1        0.1180
     22 N           1.5277   -1.2309    0.0390 N.ar    1  LIG1       -0.2280
     23 H           3.6354    1.9433   -0.1586 H       1  LIG1        0.0662
     24 N           3.3640   -2.5982    0.1973 N.pl3   1  LIG1       -0.3426
     25 H           2.6895   -3.3249    0.0101 H       1  LIG1        0.1437
     26 H           4.2968   -2.7311   -0.1686 H       1  LIG1        0.1437
     27 O           0.9698    2.3202   -0.2155 O.3     1  LIG1       -0.4929
     28 C           1.7075    3.5096   -0.0072 C.3     1  LIG1        0.0789
     29 H           0.9727    4.3085    0.0448 H       1  LIG1        0.0660
     30 H           2.2671    3.4527    0.9305 H       1  LIG1        0.0660
     31 H           2.3940    3.6952   -0.8375 H       1  LIG1        0.0660
     32 C          -1.3259   -1.0084    0.7005 C.ar    1  LIG1        0.1264
     33 C          -0.5850   -0.0749   -0.0723 C.ar    1  LIG1        0.0470
     34 C          -1.3037    0.8208   -0.8568 C.ar    1  LIG1       -0.0052
     35 C          -2.6945    0.7840   -0.8724 C.ar    1  LIG1        0.1468
     36 C          -3.3320   -0.1945   -0.1071 C.ar    1  LIG1        0.1180
     37 N          -2.6584   -1.0433    0.6650 N.ar    1  LIG1       -0.2280
     38 H          -0.7720    1.5649   -1.4330 H       1  LIG1        0.0662
     39 N          -0.7250   -1.8969    1.5532 N.pl3   1  LIG1       -0.3426
     40 H          -1.3526   -2.6030    1.9068 H       1  LIG1        0.1437
     41 H           0.2141   -2.1763    1.3059 H       1  LIG1        0.1437
     42 O          -3.4733    1.6768   -1.5444 O.3     1  LIG1       -0.4929
     43 C          -3.0659    2.0321   -2.8545 C.3     1  LIG1        0.0789
     44 H          -3.9483    2.4340   -3.3451 H       1  LIG1        0.0660
     45 H          -2.2795    2.7903   -2.8255 H       1  LIG1        0.0660
     46 H          -2.7142    1.1518   -3.3970 H       1  LIG1        0.0660
     47 C          -5.5558   -0.4779   -1.3072 C.ar    1  LIG1        0.1257
     48 C          -4.8206   -0.2995   -0.1091 C.ar    1  LIG1        0.0469
     49 C          -5.5164   -0.2816    1.0806 C.ar    1  LIG1       -0.0059
     50 C          -6.9120   -0.3769    1.0741 C.ar    1  LIG1        0.1389
     51 C          -7.5447   -0.5093   -0.1526 C.ar    1  LIG1        0.0713
     52 N          -6.8735   -0.5749   -1.3087 N.ar    1  LIG1       -0.2364
     53 H          -4.9917   -0.1860    2.0224 H       1  LIG1        0.0662
     54 H          -8.6215   -0.5846   -0.2329 H       1  LIG1        0.0868
     55 N          -4.9203   -0.5678   -2.5406 N.pl3   1  LIG1       -0.3426
     56 H          -3.9860   -0.9540   -2.5058 H       1  LIG1        0.1437
     57 H          -5.5154   -0.9929   -3.2385 H       1  LIG1        0.1437
     58 O          -7.5400   -0.3323    2.2830 O.3     1  LIG1       -0.4936
     59 C          -8.9493   -0.4266    2.2811 C.3     1  LIG1        0.0789
     60 H          -9.2555   -0.3746    3.3228 H       1  LIG1        0.0660
     61 H          -9.3929    0.4035    1.7243 H       1  LIG1        0.0660
     62 H          -9.2742   -1.3766    1.8475 H       1  LIG1        0.0660
@<TRIPOS>BOND
     1    46    43    1
     2    44    43    1
     3    57    55    1
     4    43    45    1
     5    43    42    1
     6    55    56    1
     7    55    47    1
     8    10     9    1
     9    11     9    1
    10    42    35    1
    11    38    34    1
    12    52    47   ar
    13    52    51   ar
    14    47    48   ar
    15     9     1    1
    16    35    34   ar
    17    35    36   ar
    18    34    33   ar
    19    31    28    1
    20     1     6   ar
    21     1     2   ar
    22     6     5   ar
    23    54    51    1
    24    27    20    1
    25    27    28    1
    26    26    24    1
    27    23    19    1
    28    51    50   ar
    29    20    19   ar
    30    20    21   ar
    31    19    18   ar
    32    48    36    1
    33    48    49   ar
    34    36    37   ar
    35    33    21    1
    36    33    32   ar
    37    21    22   ar
    38    28    29    1
    39    28    30    1
    40    18     5    1
    41    18    17   ar
    42    25    24    1
    43     8     2    1
    44     2     3   ar
    45     5     4   ar
    46    22    17   ar
    47    17    24    1
    48    37    32   ar
    49     3     4   ar
    50     3     7    1
    51     4    12    1
    52    32    39    1
    53    50    49   ar
    54    50    58    1
    55    49    53    1
    56    41    39    1
    57    12    13    1
    58    39    40    1
    59    16    13    1
    60    61    59    1
    61    62    59    1
    62    13    14    1
    63    13    15    1
    64    59    58    1
    65    59    60    1
