@<TRIPOS>MOLECULE
mol_data/opt/m06hf/geoms/mol2/6ia12ha4fd-6fi.out
 48 51 0 0 0
SMALL
GASTEIGER

@<TRIPOS>ATOM
      1 C          -4.2765   -2.0331   -0.7241 C.ar    1  LIG1        0.0390
      2 C          -2.9458   -2.0910   -0.3030 C.ar    1  LIG1       -0.0406
      3 C          -2.3862   -0.9748    0.3090 C.ar    1  LIG1       -0.0580
      4 C          -3.1592    0.1657    0.4746 C.ar    1  LIG1       -0.0326
      5 C          -4.4760    0.1339    0.0011 C.ar    1  LIG1        0.1081
      6 N          -5.0203   -0.9376   -0.5757 N.ar    1  LIG1       -0.2487
      7 H          -1.3640   -0.9982    0.6639 H       1  LIG1        0.0619
      8 H          -2.3720   -2.9962   -0.4471 H       1  LIG1        0.0635
      9 C          -4.9620   -3.2176   -1.3732 C.3     1  LIG1       -0.0223
     10 H          -4.2612   -4.0345   -1.5389 H       1  LIG1        0.0292
     11 H          -5.3927   -2.9054   -2.3240 H       1  LIG1        0.0292
     12 H          -5.7717   -3.5605   -0.7284 H       1  LIG1        0.0292
     13 H          -2.7862    1.0468    0.9800 H       1  LIG1        0.0640
     14 C          -5.3345    1.3172    0.1428 C.ar    1  LIG1        0.1743
     15 C          -5.0562    2.6450    0.3210 C.ar    1  LIG1        0.0731
     16 C          -6.3240    3.3105    0.4130 C.ar    1  LIG1        0.0057
     17 C          -7.2672    2.3342    0.2744 C.ar    1  LIG1        0.1411
     18 O          -6.6754    1.1402    0.1012 O.2     1  LIG1       -0.4513
     19 N          -3.7867    3.2405    0.4140 N.pl3   1  LIG1       -0.3550
     20 H          -3.1523    2.9159   -0.3081 H       1  LIG1        0.1424
     21 H          -3.8396    4.2509    0.3983 H       1  LIG1        0.1424
     22 H          -6.5063    4.3602    0.5571 H       1  LIG1        0.0674
     23 C          -9.4941    3.4727    0.4767 C.ar    1  LIG1        0.1281
     24 C         -10.8856    3.4156    0.4937 C.ar    1  LIG1       -0.0104
     25 C          -8.7330    2.3119    0.2740 C.ar    1  LIG1        0.0599
     26 C         -11.5564    2.2110    0.3018 C.ar    1  LIG1        0.0080
     27 H         -11.4638    4.3155    0.6717 H       1  LIG1        0.0661
     28 C          -9.4004    1.1051    0.0751 C.ar    1  LIG1       -0.0296
     29 C         -10.7936    1.0527    0.0866 C.ar    1  LIG1        0.0605
     30 H          -8.8223    0.2056   -0.0929 H       1  LIG1        0.0639
     31 O          -8.8296    4.6374    0.6637 O.3     1  LIG1       -0.5060
     32 H          -9.4425    5.3583    0.8449 H       1  LIG1        0.2922
     33 N         -11.9703   -1.2236   -0.3341 N.1     1  LIG1       -0.1908
     34 C         -11.4560   -0.2144   -0.1504 C.1     1  LIG1        0.0998
     35 C         -13.7310    1.5120    1.3740 C.ar    1  LIG1        0.2202
     36 C         -13.0467    2.1748    0.3335 C.ar    1  LIG1        0.0451
     37 C         -13.8087    2.8202   -0.6293 C.ar    1  LIG1       -0.0446
     38 C         -15.2026    2.7934   -0.5641 C.ar    1  LIG1       -0.0315
     39 C         -15.7530    2.1020    0.5099 C.ar    1  LIG1        0.0343
     40 N         -15.0447    1.4845    1.4544 N.ar    1  LIG1       -0.2207
     41 H         -13.3058    3.3337   -1.4421 H       1  LIG1        0.0628
     42 H         -16.8304    2.0419    0.6199 H       1  LIG1        0.0833
     43 O         -13.0764    0.8833    2.3678 O.3     1  LIG1       -0.4920
     44 H         -12.1219    0.9470    2.2470 H       1  LIG1        0.2937
     45 C         -16.0654    3.4730   -1.6083 C.3     1  LIG1       -0.0383
     46 H         -17.1204    3.3106   -1.3899 H       1  LIG1        0.0278
     47 H         -15.8519    3.0706   -2.5994 H       1  LIG1        0.0278
     48 H         -15.8771    4.5477   -1.6239 H       1  LIG1        0.0278
@<TRIPOS>BOND
     1    47    45    1
     2    11     9    1
     3    48    45    1
     4    45    46    1
     5    45    38    1
     6    10     9    1
     7    41    37    1
     8     9    12    1
     9     9     1    1
    10     1     6   ar
    11     1     2   ar
    12    37    38   ar
    13    37    36   ar
    14     6     5   ar
    15    38    39   ar
    16     8     2    1
    17    33    34    3
    18    20    19    1
    19     2     3   ar
    20    34    29    1
    21    30    28    1
    22     5    14    1
    23     5     4   ar
    24    28    29   ar
    25    28    25   ar
    26    29    26   ar
    27    18    14   ar
    28    18    17   ar
    29    14    15   ar
    30    25    17    1
    31    25    23   ar
    32    17    16   ar
    33    26    36    1
    34    26    24   ar
    35     3     4   ar
    36     3     7    1
    37    15    16   ar
    38    15    19    1
    39    36    35   ar
    40    21    19    1
    41    16    22    1
    42     4    13    1
    43    23    24   ar
    44    23    31    1
    45    24    27    1
    46    39    42    1
    47    39    40   ar
    48    31    32    1
    49    35    40   ar
    50    35    43    1
    51    44    43    1
