@<TRIPOS>MOLECULE
mol_data/opt/m06hf/geoms/mol2/6ia6ia6ia.out
 38 40 0 0 0
SMALL
GASTEIGER

@<TRIPOS>ATOM
      1 C          -4.1232   -2.0194   -0.5455 C.ar    1  LIG1        0.0389
      2 C          -3.0541   -2.1364    0.3446 C.ar    1  LIG1       -0.0406
      3 C          -2.7913   -1.0880    1.2184 C.ar    1  LIG1       -0.0581
      4 C          -3.5946    0.0438    1.1731 C.ar    1  LIG1       -0.0356
      5 C          -4.6348    0.0819    0.2402 C.ar    1  LIG1        0.0730
      6 N          -4.8897   -0.9291   -0.5897 N.ar    1  LIG1       -0.2518
      7 H          -1.9785   -1.1563    1.9299 H       1  LIG1        0.0619
      8 H          -2.4517   -3.0346    0.3520 H       1  LIG1        0.0635
      9 C          -4.4829   -3.1220   -1.5195 C.3     1  LIG1       -0.0223
     10 H          -3.8113   -3.9729   -1.4162 H       1  LIG1        0.0292
     11 H          -4.4267   -2.7342   -2.5365 H       1  LIG1        0.0292
     12 H          -5.5083   -3.4426   -1.3328 H       1  LIG1        0.0292
     13 H          -3.4432    0.8722    1.8515 H       1  LIG1        0.0639
     14 C          -6.9096    1.1882    0.0400 C.ar    1  LIG1        0.0480
     15 C          -5.5081    1.2889    0.1315 C.ar    1  LIG1        0.0214
     16 C          -4.9391    2.5585    0.1275 C.ar    1  LIG1       -0.0488
     17 C          -5.7517    3.6801    0.0214 C.ar    1  LIG1       -0.0350
     18 C          -7.1282    3.4862   -0.0821 C.ar    1  LIG1        0.0730
     19 N          -7.6783    2.2698   -0.0615 N.ar    1  LIG1       -0.2512
     20 H          -3.8628    2.6649    0.1932 H       1  LIG1        0.0625
     21 C          -7.6387   -0.1395    0.0653 C.3     1  LIG1       -0.0217
     22 H          -7.2338   -0.7879    0.8431 H       1  LIG1        0.0293
     23 H          -7.5144   -0.6480   -0.8902 H       1  LIG1        0.0293
     24 H          -8.6912    0.0642    0.2500 H       1  LIG1        0.0293
     25 H          -5.3376    4.6789    0.0325 H       1  LIG1        0.0639
     26 C          -9.2446    4.7574    0.5021 C.ar    1  LIG1        0.0473
     27 C          -8.0512    4.6497   -0.2380 C.ar    1  LIG1        0.0214
     28 C          -7.7360    5.6634   -1.1382 C.ar    1  LIG1       -0.0494
     29 C          -8.5988    6.7424   -1.2894 C.ar    1  LIG1       -0.0430
     30 C          -9.7528    6.7579   -0.5173 C.ar    1  LIG1        0.0279
     31 N         -10.0624    5.7993    0.3540 N.ar    1  LIG1       -0.2595
     32 H          -6.8319    5.5907   -1.7310 H       1  LIG1        0.0625
     33 H         -10.4621    7.5734   -0.5984 H       1  LIG1        0.0829
     34 C          -9.6732    3.7191    1.5193 C.3     1  LIG1       -0.0217
     35 H          -8.8346    3.4282    2.1528 H       1  LIG1        0.0293
     36 H         -10.0278    2.8250    1.0073 H       1  LIG1        0.0293
     37 H         -10.4705    4.1541    2.1172 H       1  LIG1        0.0293
     38 H          -8.3895    7.5410   -1.9869 H       1  LIG1        0.0633
@<TRIPOS>BOND
     1    11     9    1
     2    38    29    1
     3    32    28    1
     4     9    10    1
     5     9    12    1
     6     9     1    1
     7    29    28   ar
     8    29    30   ar
     9    28    27   ar
    10    23    21    1
    11    33    30    1
    12     6     1   ar
    13     6     5   ar
    14     1     2   ar
    15    30    31   ar
    16    27    18    1
    17    27    26   ar
    18    18    19   ar
    19    18    17   ar
    20    19    14   ar
    21    17    25    1
    22    17    16   ar
    23    14    21    1
    24    14    15   ar
    25    21    24    1
    26    21    22    1
    27    16    15   ar
    28    16    20    1
    29    15     5    1
    30     5     4   ar
    31     2     8    1
    32     2     3   ar
    33    31    26   ar
    34    26    34    1
    35    36    34    1
    36     4     3   ar
    37     4    13    1
    38     3     7    1
    39    34    37    1
    40    34    35    1
