@<TRIPOS>MOLECULE
mol_data/opt/m06hf/geoms/mol2/6ia6df6di-4ae13ia13ai13ei-12ie-.out
 97 104 0 0 0
SMALL
GASTEIGER

@<TRIPOS>ATOM
      1 C          -3.9000   -2.2996    0.5441 C.ar    1  LIG1        0.0389
      2 C          -2.5626   -2.3229    0.1387 C.ar    1  LIG1       -0.0406
      3 C          -1.9998   -1.1723   -0.4000 C.ar    1  LIG1       -0.0581
      4 C          -2.7788   -0.0266   -0.5152 C.ar    1  LIG1       -0.0356
      5 C          -4.1056   -0.1023   -0.0918 C.ar    1  LIG1        0.0741
      6 N          -4.6471   -1.2056    0.4119 N.ar    1  LIG1       -0.2518
      7 H          -0.9634   -1.1626   -0.7111 H       1  LIG1        0.0619
      8 H          -1.9790   -3.2258    0.2548 H       1  LIG1        0.0635
      9 C          -4.5905   -3.4946    1.1634 C.3     1  LIG1       -0.0223
     10 H          -3.8821   -4.2934    1.3761 H       1  LIG1        0.0292
     11 H          -5.3583   -3.8612    0.4809 H       1  LIG1        0.0292
     12 H          -5.0763   -3.1703    2.0838 H       1  LIG1        0.0292
     13 H          -2.3698    0.9005   -0.8922 H       1  LIG1        0.0639
     14 C          -5.9393    1.3603    0.8531 C.ar    1  LIG1        0.1501
     15 C          -5.0120    1.0807   -0.1664 C.ar    1  LIG1        0.0397
     16 C          -4.9848    1.9402   -1.2561 C.ar    1  LIG1       -0.0061
     17 C          -5.8542    3.0243   -1.2967 C.ar    1  LIG1        0.1435
     18 C          -6.7299    3.2204   -0.2202 C.ar    1  LIG1        0.1165
     19 N          -6.7640    2.3971    0.8196 N.ar    1  LIG1       -0.2319
     20 H          -4.3279    1.7651   -2.0982 H       1  LIG1        0.0662
     21 N          -6.0760   -0.0412    3.0444 N.1     1  LIG1       -0.1893
     22 C          -6.0135    0.5475    2.0629 C.1     1  LIG1        0.1198
     23 O          -5.8236    3.8359   -2.3765 O.3     1  LIG1       -0.5046
     24 H          -6.6004    4.4096   -2.3943 H       1  LIG1        0.2922
     25 C          -9.0448    4.2135   -0.0351 C.ar    1  LIG1        0.1500
     26 C          -7.6683    4.3797   -0.2128 C.ar    1  LIG1        0.0401
     27 C          -7.2136    5.6910   -0.3391 C.ar    1  LIG1       -0.0448
     28 C          -8.0961    6.7689   -0.3059 C.ar    1  LIG1       -0.0238
     29 C          -9.4642    6.4690   -0.1561 C.ar    1  LIG1        0.0754
     30 N          -9.9057    5.2185   -0.0069 N.ar    1  LIG1       -0.2354
     31 H          -6.1471    5.8734   -0.4270 H       1  LIG1        0.0628
     32 N         -10.0768    1.8299    0.1658 N.1     1  LIG1       -0.1893
     33 C          -9.6156    2.8768    0.0958 C.1     1  LIG1        0.1198
     34 C          -7.5488    8.1832   -0.3629 C.3     1  LIG1       -0.0377
     35 H          -8.1825    8.8629    0.2047 H       1  LIG1        0.0278
     36 H          -7.4914    8.5379   -1.3938 H       1  LIG1        0.0278
     37 H          -6.5441    8.1966    0.0581 H       1  LIG1        0.0278
     38 C         -10.5518    8.5976   -0.9950 C.ar    1  LIG1       -0.0519
     39 C         -11.5843    9.5238   -0.9429 C.ar    1  LIG1       -0.0508
     40 C         -10.5286    7.5158   -0.1120 C.ar    1  LIG1        0.0018
     41 C         -12.6118    9.4220    0.0018 C.ar    1  LIG1        0.0140
     42 H         -11.6222   10.3252   -1.6679 H       1  LIG1        0.0625
     43 C         -11.5665    7.3726    0.8049 C.ar    1  LIG1       -0.0365
     44 C         -12.5910    8.3173    0.8793 C.ar    1  LIG1        0.0344
     45 H         -11.5785    6.5199    1.4703 H       1  LIG1        0.0636
     46 H          -9.7910    8.6931   -1.7589 H       1  LIG1        0.0624
     47 C         -13.6065    8.1198    1.8909 C.1     1  LIG1       -0.0690
     48 C         -14.4335    7.9208    2.7418 C.1     1  LIG1       -0.1139
     49 H         -15.1486    7.7556    3.5152 H       1  LIG1        0.1232
     50 C         -13.6682   10.4472    0.0204 C.ar    1  LIG1        0.0511
     51 C         -13.5969   11.8055   -0.2565 C.ar    1  LIG1       -0.0245
     52 C         -14.9134   12.3191   -0.1212 C.ar    1  LIG1       -0.0315
     53 C         -15.7396   11.2734    0.2343 C.ar    1  LIG1        0.0636
     54 N         -14.9736   10.1505    0.3115 N.ar    1  LIG1       -0.3528
     55 H         -15.2794    9.2648    0.6881 H       1  LIG1        0.1660
     56 C         -12.3717   12.6216   -0.5969 C.3     1  LIG1       -0.0377
     57 H         -12.4995   13.6357   -0.2184 H       1  LIG1        0.0278
     58 H         -12.2159   12.6826   -1.6769 H       1  LIG1        0.0278
     59 H         -11.4798   12.1927   -0.1389 H       1  LIG1        0.0278
     60 H         -15.2300   13.3371   -0.2815 H       1  LIG1        0.0642
     61 C         -17.1772   11.2419    0.5046 C.ar    1  LIG1        0.0636
     62 C         -17.9872   12.1351    1.1677 C.ar    1  LIG1       -0.0314
     63 C         -19.3193   11.6304    1.1337 C.ar    1  LIG1       -0.0231
     64 C         -19.2683   10.4380    0.4428 C.ar    1  LIG1        0.0675
     65 N         -17.9623   10.2034    0.0810 N.ar    1  LIG1       -0.3516
     66 H         -17.6772    9.5202   -0.6047 H       1  LIG1        0.1660
     67 H         -17.6493   13.0322    1.6605 H       1  LIG1        0.0642
     68 C         -20.5369   12.2481    1.7734 C.3     1  LIG1       -0.0376
     69 H         -21.3118   11.4948    1.9149 H       1  LIG1        0.0278
     70 H         -20.9454   13.0365    1.1399 H       1  LIG1        0.0278
     71 H         -20.2716   12.6742    2.7415 H       1  LIG1        0.0278
     72 C         -20.3196    9.4749    0.1225 C.ar    1  LIG1        0.0795
     73 C         -21.5906    9.6545   -0.4019 C.ar    1  LIG1        0.0549
     74 C         -22.2118    8.3694   -0.5032 C.ar    1  LIG1       -0.0061
     75 C         -21.2810    7.4560   -0.0603 C.ar    1  LIG1        0.0870
     76 N         -20.1498    8.1384    0.3122 N.ar    1  LIG1       -0.3494
     77 H         -19.3541    7.7160    0.7659 H       1  LIG1        0.1661
     78 C         -22.1757   10.8995   -0.7998 C.1     1  LIG1       -0.0672
     79 C         -22.6900   11.9310   -1.1448 C.1     1  LIG1       -0.1138
     80 H         -23.1385   12.8450   -1.4576 H       1  LIG1        0.1232
     81 C         -23.6229    8.1075   -0.9587 C.3     1  LIG1       -0.0364
     82 H         -23.9415    7.1169   -0.6340 H       1  LIG1        0.0279
     83 H         -23.7043    8.1704   -2.0457 H       1  LIG1        0.0279
     84 H         -24.2856    8.8571   -0.5259 H       1  LIG1        0.0279
     85 C         -21.3463    6.0034    0.0629 C.ar    1  LIG1        0.1552
     86 C         -21.8320    5.0276   -0.7471 C.ar    1  LIG1        0.0121
     87 C         -21.5816    3.7896   -0.0366 C.ar    1  LIG1        0.0659
     88 C         -20.9515    4.1299    1.1178 C.ar    1  LIG1        0.1082
     89 O         -20.8044    5.4624    1.1906 O.2     1  LIG1       -0.4599
     90 H         -20.5712    3.5448    1.9363 H       1  LIG1        0.1042
     91 C         -22.4360    5.1566   -2.1185 C.3     1  LIG1       -0.0349
     92 H         -22.0236    4.3838   -2.7676 H       1  LIG1        0.0279
     93 H         -22.2063    6.1385   -2.5316 H       1  LIG1        0.0279
     94 H         -23.5191    5.0295   -2.0795 H       1  LIG1        0.0279
     95 C         -21.9081    2.4694   -0.4877 C.1     1  LIG1       -0.0662
     96 C         -22.1853    1.3704   -0.8857 C.1     1  LIG1       -0.1138
     97 H         -22.4281    0.3939   -1.2351 H       1  LIG1        0.1232
@<TRIPOS>BOND
     1    92    91    1
     2    93    91    1
     3    24    23    1
     4    23    17    1
     5    91    94    1
     6    91    86    1
     7    20    16    1
     8    83    81    1
     9    46    38    1
    10    58    56    1
    11    42    39    1
    12    80    79    1
    13    36    34    1
    14    17    16   ar
    15    17    18   ar
    16    16    15   ar
    17    97    96    1
    18    79    78    3
    19    38    39   ar
    20    38    40   ar
    21    81    82    1
    22    81    84    1
    23    81    74    1
    24    39    41   ar
    25    13     4    1
    26    96    95    3
    27    78    73    1
    28    86    87   ar
    29    86    85   ar
    30     7     3    1
    31    66    65    1
    32    56    51    1
    33    56    57    1
    34    56    59    1
    35     4     3   ar
    36     4     5   ar
    37    74    73   ar
    38    74    75   ar
    39    95    87    1
    40    31    27    1
    41    73    72   ar
    42     3     2   ar
    43    34    28    1
    44    34    37    1
    45    34    35    1
    46    27    28   ar
    47    27    26   ar
    48    28    29   ar
    49    60    52    1
    50    51    52   ar
    51    51    50   ar
    52    18    26    1
    53    18    19   ar
    54    26    25   ar
    55    15     5    1
    56    15    14   ar
    57    29    40    1
    58    29    30   ar
    59    52    53   ar
    60    40    43   ar
    61     5     6   ar
    62    75    85    1
    63    75    76   ar
    64    87    88   ar
    65    25    30   ar
    66    25    33    1
    67    41    50    1
    68    41    44   ar
    69    50    54   ar
    70    85    89   ar
    71    65    64   ar
    72    65    61   ar
    73    33    32    3
    74    72    76   ar
    75    72    64    1
    76     2     8    1
    77     2     1   ar
    78    53    54   ar
    79    53    61    1
    80    54    55    1
    81    76    77    1
    82     6     1   ar
    83    64    63   ar
    84    11     9    1
    85    61    62   ar
    86     1     9    1
    87    43    44   ar
    88    43    45    1
    89    19    14   ar
    90    14    22    1
    91    44    47    1
    92    88    89   ar
    93    88    90    1
    94    63    62   ar
    95    63    68    1
    96    70    68    1
    97     9    10    1
    98     9    12    1
    99    62    67    1
   100    68    69    1
   101    68    71    1
   102    47    48    3
   103    22    21    3
   104    48    49    1
