@<TRIPOS>MOLECULE
mol_data/opt/m06hf/geoms/mol2/6ia6ia6ia-6ia-.out
 50 53 0 0 0
SMALL
GASTEIGER

@<TRIPOS>ATOM
      1 C          -4.5025   -2.3174   -0.1707 C.ar    1  LIG1        0.0389
      2 C          -3.1072   -2.3296   -0.1214 C.ar    1  LIG1       -0.0406
      3 C          -2.4279   -1.1189   -0.0597 C.ar    1  LIG1       -0.0581
      4 C          -3.1573    0.0629   -0.0542 C.ar    1  LIG1       -0.0356
      5 C          -4.5514   -0.0173   -0.1194 C.ar    1  LIG1        0.0730
      6 N          -5.1995   -1.1807   -0.1716 N.ar    1  LIG1       -0.2518
      7 H          -1.3472   -1.0963   -0.0053 H       1  LIG1        0.0619
      8 H          -2.5739   -3.2706   -0.1235 H       1  LIG1        0.0635
      9 C          -5.3155   -3.5936   -0.2345 C.3     1  LIG1       -0.0223
     10 H          -4.6807   -4.4703   -0.1150 H       1  LIG1        0.0292
     11 H          -5.8284   -3.6466   -1.1953 H       1  LIG1        0.0292
     12 H          -6.0677   -3.5763    0.5540 H       1  LIG1        0.0292
     13 H          -2.6707    1.0254    0.0231 H       1  LIG1        0.0639
     14 C          -6.5518    1.3657    0.6178 C.ar    1  LIG1        0.0480
     15 C          -5.3758    1.2281   -0.1452 C.ar    1  LIG1        0.0214
     16 C          -4.9911    2.2951   -0.9507 C.ar    1  LIG1       -0.0488
     17 C          -5.7516    3.4572   -0.9773 C.ar    1  LIG1       -0.0350
     18 C          -6.8866    3.5171   -0.1710 C.ar    1  LIG1        0.0730
     19 N          -7.2673    2.4869    0.5903 N.ar    1  LIG1       -0.2512
     20 H          -4.1138    2.2026   -1.5799 H       1  LIG1        0.0625
     21 C          -7.0761    0.2714    1.5257 C.3     1  LIG1       -0.0217
     22 H          -6.2694   -0.1534    2.1239 H       1  LIG1        0.0293
     23 H          -7.5032   -0.5325    0.9273 H       1  LIG1        0.0293
     24 H          -7.8345    0.7120    2.1684 H       1  LIG1        0.0293
     25 H          -5.4913    4.2789   -1.6284 H       1  LIG1        0.0639
     26 C          -7.3587    6.0363   -0.1996 C.ar    1  LIG1        0.0480
     27 C          -7.7958    4.7028   -0.1515 C.ar    1  LIG1        0.0214
     28 C          -9.1682    4.4683   -0.0489 C.ar    1  LIG1       -0.0488
     29 C         -10.0536    5.5326   -0.0585 C.ar    1  LIG1       -0.0350
     30 C          -9.5314    6.8247   -0.1679 C.ar    1  LIG1        0.0730
     31 N          -8.2214    7.0540   -0.2149 N.ar    1  LIG1       -0.2512
     32 H          -9.5113    3.4464    0.0492 H       1  LIG1        0.0625
     33 C          -5.8987    6.4528   -0.1939 C.3     1  LIG1       -0.0217
     34 H          -5.8413    7.4266    0.2888 H       1  LIG1        0.0293
     35 H          -5.5269    6.5593   -1.2155 H       1  LIG1        0.0293
     36 H          -5.2783    5.7332    0.3382 H       1  LIG1        0.0293
     37 H         -11.1197    5.3798    0.0380 H       1  LIG1        0.0639
     38 C         -10.1913    9.1866    0.4965 C.ar    1  LIG1        0.0473
     39 C         -10.4407    8.0076   -0.2331 C.ar    1  LIG1        0.0214
     40 C         -11.5786    7.9525   -1.0335 C.ar    1  LIG1       -0.0494
     41 C         -12.4304    9.0487   -1.0965 C.ar    1  LIG1       -0.0430
     42 C         -12.0984   10.1664   -0.3424 C.ar    1  LIG1        0.0279
     43 N         -11.0166   10.2315    0.4318 N.ar    1  LIG1       -0.2595
     44 H         -11.7798    7.0626   -1.6182 H       1  LIG1        0.0625
     45 H         -12.7273   11.0489   -0.3558 H       1  LIG1        0.0829
     46 C          -8.9951    9.3482    1.4128 C.3     1  LIG1       -0.0217
     47 H          -9.1726   10.2237    2.0328 H       1  LIG1        0.0293
     48 H          -8.0899    9.4801    0.8207 H       1  LIG1        0.0293
     49 H          -8.8598    8.4607    2.0319 H       1  LIG1        0.0293
     50 H         -13.3178    9.0409   -1.7135 H       1  LIG1        0.0633
@<TRIPOS>BOND
     1    50    41    1
     2    25    17    1
     3    44    40    1
     4    20    16    1
     5    35    33    1
     6    11     9    1
     7    41    40   ar
     8    41    42   ar
     9    40    39   ar
    10    17    16   ar
    11    17    18   ar
    12    16    15   ar
    13    45    42    1
    14    42    43   ar
    15     9     1    1
    16     9    10    1
    17     9    12    1
    18    39    30    1
    19    39    38   ar
    20    31    26   ar
    21    31    30   ar
    22    26    33    1
    23    26    27   ar
    24    33    34    1
    25    33    36    1
    26     6     1   ar
    27     6     5   ar
    28    18    27    1
    29    18    19   ar
    30     1     2   ar
    31    30    29   ar
    32    27    28   ar
    33    15     5    1
    34    15    14   ar
    35     8     2    1
    36     2     3   ar
    37     5     4   ar
    38     3     4   ar
    39     3     7    1
    40    29    28   ar
    41    29    37    1
    42     4    13    1
    43    28    32    1
    44    43    38   ar
    45    38    46    1
    46    19    14   ar
    47    14    21    1
    48    48    46    1
    49    23    21    1
    50    46    49    1
    51    46    47    1
    52    21    22    1
    53    21    24    1
