@<TRIPOS>MOLECULE
mol_data/opt/m06hf/geoms/mol2/6ia6ia.out
 26 27 0 0 0
SMALL
GASTEIGER

@<TRIPOS>ATOM
      1 C          -4.3937   -2.0441   -0.3129 C.ar    1  LIG1        0.0389
      2 C          -3.0979   -2.0469    0.2058 C.ar    1  LIG1       -0.0406
      3 C          -2.5634   -0.8542    0.6791 C.ar    1  LIG1       -0.0581
      4 C          -3.3318    0.3006    0.6148 C.ar    1  LIG1       -0.0356
      5 C          -4.6147    0.2154    0.0651 C.ar    1  LIG1        0.0730
      6 N          -5.1262   -0.9318   -0.3799 N.ar    1  LIG1       -0.2518
      7 H          -1.5669   -0.8273    1.1005 H       1  LIG1        0.0619
      8 H          -2.5310   -2.9673    0.2428 H       1  LIG1        0.0635
      9 C          -5.0510   -3.3021   -0.8411 C.3     1  LIG1       -0.0223
     10 H          -4.4283   -4.1770   -0.6615 H       1  LIG1        0.0292
     11 H          -5.2256   -3.1946   -1.9121 H       1  LIG1        0.0292
     12 H          -6.0157   -3.4324   -0.3507 H       1  LIG1        0.0292
     13 H          -2.9667    1.2444    0.9957 H       1  LIG1        0.0639
     14 C          -6.8274    1.4329    0.3077 C.ar    1  LIG1        0.0473
     15 C          -5.4675    1.4359   -0.0573 C.ar    1  LIG1        0.0214
     16 C          -4.9150    2.6163   -0.5459 C.ar    1  LIG1       -0.0494
     17 C          -5.7104    3.7494   -0.6675 C.ar    1  LIG1       -0.0430
     18 C          -7.0419    3.6463   -0.2867 C.ar    1  LIG1        0.0279
     19 N          -7.5811    2.5259    0.1907 N.ar    1  LIG1       -0.2595
     20 H          -3.8747    2.6362   -0.8486 H       1  LIG1        0.0625
     21 H          -7.7074    4.4978   -0.3651 H       1  LIG1        0.0829
     22 C          -7.5218    0.2089    0.8699 C.3     1  LIG1       -0.0217
     23 H          -6.9009   -0.2768    1.6237 H       1  LIG1        0.0293
     24 H          -7.7045   -0.5120    0.0736 H       1  LIG1        0.0293
     25 H          -8.4627    0.5364    1.3060 H       1  LIG1        0.0293
     26 H          -5.3154    4.6792   -1.0514 H       1  LIG1        0.0633
@<TRIPOS>BOND
     1    11     9    1
     2    26    17    1
     3    20    16    1
     4     9    10    1
     5     9    12    1
     6     9     1    1
     7    17    16   ar
     8    17    18   ar
     9    16    15   ar
    10     6     1   ar
    11     6     5   ar
    12    21    18    1
    13     1     2   ar
    14    18    19   ar
    15    15     5    1
    16    15    14   ar
    17     5     4   ar
    18    24    22    1
    19    19    14   ar
    20     2     8    1
    21     2     3   ar
    22    14    22    1
    23     4     3   ar
    24     4    13    1
    25     3     7    1
    26    22    25    1
    27    22    23    1
