@<TRIPOS>MOLECULE
mol_data/opt/m06hf/geoms/mol2/6ia6ia-.out
 26 27 0 0 0
SMALL
GASTEIGER

@<TRIPOS>ATOM
      1 C          -4.4858   -2.0479    0.1764 C.ar    1  LIG1        0.0389
      2 C          -3.1570   -2.1177   -0.2449 C.ar    1  LIG1       -0.0406
      3 C          -2.5307   -0.9534   -0.6735 C.ar    1  LIG1       -0.0581
      4 C          -3.2374    0.2417   -0.6517 C.ar    1  LIG1       -0.0356
      5 C          -4.5563    0.2260   -0.1878 C.ar    1  LIG1        0.0730
      6 N          -5.1612   -0.8987    0.1971 N.ar    1  LIG1       -0.2518
      7 H          -1.5087   -0.9780   -1.0294 H       1  LIG1        0.0619
      8 H          -2.6366   -3.0656   -0.2456 H       1  LIG1        0.0635
      9 C          -5.2428   -3.2731    0.6458 C.3     1  LIG1       -0.0223
     10 H          -4.6482   -4.1758    0.5156 H       1  LIG1        0.0292
     11 H          -6.1697   -3.3607    0.0795 H       1  LIG1        0.0292
     12 H          -5.4975   -3.1558    1.6995 H       1  LIG1        0.0292
     13 H          -2.7945    1.1613   -1.0057 H       1  LIG1        0.0639
     14 C          -4.9296    2.7223    0.2434 C.ar    1  LIG1        0.0473
     15 C          -5.3994    1.4609   -0.1566 C.ar    1  LIG1        0.0214
     16 C          -6.7396    1.3423   -0.5288 C.ar    1  LIG1       -0.0494
     17 C          -7.5503    2.4659   -0.5437 C.ar    1  LIG1       -0.0430
     18 C          -6.9828    3.6790   -0.1650 C.ar    1  LIG1        0.0279
     19 N          -5.7202    3.7998    0.2294 N.ar    1  LIG1       -0.2595
     20 H          -7.1168    0.3639   -0.7971 H       1  LIG1        0.0625
     21 H          -7.5715    4.5889   -0.1635 H       1  LIG1        0.0829
     22 C          -3.5267    2.9778    0.7645 C.3     1  LIG1       -0.0217
     23 H          -3.5876    3.8117    1.4606 H       1  LIG1        0.0293
     24 H          -2.8610    3.2673   -0.0521 H       1  LIG1        0.0293
     25 H          -3.1168    2.1010    1.2638 H       1  LIG1        0.0293
     26 H          -8.5893    2.4109   -0.8358 H       1  LIG1        0.0633
@<TRIPOS>BOND
     1     7     3    1
     2    13     4    1
     3    26    17    1
     4    20    16    1
     5     3     4   ar
     6     3     2   ar
     7     4     5   ar
     8    17    16   ar
     9    17    18   ar
    10    16    15   ar
    11     8     2    1
    12     2     1   ar
    13     5    15    1
    14     5     6   ar
    15    18    21    1
    16    18    19   ar
    17    15    14   ar
    18    24    22    1
    19    11     9    1
    20     1     6   ar
    21     1     9    1
    22    19    14   ar
    23    14    22    1
    24    10     9    1
    25     9    12    1
    26    22    25    1
    27    22    23    1
