@<TRIPOS>MOLECULE
mol_data/opt/m06hf/geoms/mol2/6ia6ia-6ia-6ia.out
 50 53 0 0 0
SMALL
GASTEIGER

@<TRIPOS>ATOM
      1 C           6.7299   -0.9707    0.4709 C.ar    1  LIG1        0.0389
      2 C           7.5121   -0.1086   -0.3000 C.ar    1  LIG1       -0.0406
      3 C           6.8780    0.8440   -1.0881 C.ar    1  LIG1       -0.0581
      4 C           5.4914    0.9218   -1.0704 C.ar    1  LIG1       -0.0356
      5 C           4.7875    0.0389   -0.2470 C.ar    1  LIG1        0.0730
      6 N           5.3993   -0.8913    0.4874 N.ar    1  LIG1       -0.2518
      7 H           7.4552    1.5110   -1.7154 H       1  LIG1        0.0619
      8 H           8.5898   -0.1979   -0.2870 H       1  LIG1        0.0635
      9 C           7.3426   -2.0482    1.3412 C.3     1  LIG1       -0.0223
     10 H           8.4259   -2.0713    1.2335 H       1  LIG1        0.0292
     11 H           6.9278   -3.0159    1.0591 H       1  LIG1        0.0292
     12 H           7.0847   -1.8573    2.3832 H       1  LIG1        0.0292
     13 H           4.9622    1.6279   -1.6937 H       1  LIG1        0.0639
     14 C           2.5033    1.1947   -0.1611 C.ar    1  LIG1        0.0480
     15 C           3.2937    0.0338   -0.1842 C.ar    1  LIG1        0.0214
     16 C           2.6460   -1.1998   -0.1091 C.ar    1  LIG1       -0.0488
     17 C           1.2628   -1.2527   -0.0736 C.ar    1  LIG1       -0.0350
     18 C           0.5553   -0.0475   -0.1089 C.ar    1  LIG1        0.0730
     19 N           1.1708    1.1320   -0.1328 N.ar    1  LIG1       -0.2512
     20 H           3.2469   -2.0991   -0.0669 H       1  LIG1        0.0625
     21 C           3.0669    2.6036   -0.1202 C.3     1  LIG1       -0.0217
     22 H           2.3572    3.2223    0.4261 H       1  LIG1        0.0293
     23 H           3.1602    3.0078   -1.1308 H       1  LIG1        0.0293
     24 H           4.0408    2.6314    0.3660 H       1  LIG1        0.0293
     25 H           0.7373   -2.1943    0.0050 H       1  LIG1        0.0639
     26 C          -1.6980    0.8558    0.6517 C.ar    1  LIG1        0.0480
     27 C          -0.9377   -0.0478   -0.1166 C.ar    1  LIG1        0.0214
     28 C          -1.6199   -0.9652   -0.9103 C.ar    1  LIG1       -0.0488
     29 C          -3.0082   -0.9832   -0.9169 C.ar    1  LIG1       -0.0350
     30 C          -3.6804   -0.0724   -0.1039 C.ar    1  LIG1        0.0730
     31 N          -3.0286    0.8238    0.6422 N.ar    1  LIG1       -0.2512
     32 H          -1.0620   -1.6442   -1.5442 H       1  LIG1        0.0625
     33 C          -1.0731    1.9055    1.5488 C.3     1  LIG1       -0.0217
     34 H          -1.8580    2.2977    2.1911 H       1  LIG1        0.0293
     35 H          -0.6419    2.7015    0.9428 H       1  LIG1        0.0293
     36 H          -0.2703    1.4736    2.1471 H       1  LIG1        0.0293
     37 H          -3.5554   -1.6620   -1.5548 H       1  LIG1        0.0639
     38 C          -6.0173   -1.1139   -0.0481 C.ar    1  LIG1        0.0473
     39 C          -5.1722    0.0081   -0.0600 C.ar    1  LIG1        0.0214
     40 C          -5.7544    1.2755   -0.0073 C.ar    1  LIG1       -0.0494
     41 C          -7.1349    1.3964    0.0033 C.ar    1  LIG1       -0.0430
     42 C          -7.8878    0.2256   -0.0240 C.ar    1  LIG1        0.0279
     43 N          -7.3473   -0.9876   -0.0343 N.ar    1  LIG1       -0.2595
     44 H          -5.1060    2.1416    0.0277 H       1  LIG1        0.0625
     45 H          -8.9710    0.2644   -0.0226 H       1  LIG1        0.0829
     46 C          -5.5181   -2.5471   -0.0030 C.3     1  LIG1       -0.0217
     47 H          -4.5540   -2.6203    0.4983 H       1  LIG1        0.0293
     48 H          -5.4259   -2.9517   -1.0137 H       1  LIG1        0.0293
     49 H          -6.2644   -3.1340    0.5284 H       1  LIG1        0.0293
     50 H          -7.6186    2.3623    0.0341 H       1  LIG1        0.0633
@<TRIPOS>BOND
     1     7     3    1
     2    13     4    1
     3    37    29    1
     4    32    28    1
     5    23    21    1
     6     3     4   ar
     7     3     2   ar
     8     4     5   ar
     9    48    46    1
    10    29    28   ar
    11    29    30   ar
    12    28    27   ar
    13     2     8    1
    14     2     1   ar
    15     5    15    1
    16     5     6   ar
    17    15    14   ar
    18    15    16   ar
    19    14    19   ar
    20    14    21    1
    21    19    18   ar
    22    21    24    1
    23    21    22    1
    24    27    18    1
    25    27    26   ar
    26    16    17   ar
    27    16    20    1
    28    18    17   ar
    29    30    39    1
    30    30    31   ar
    31    17    25    1
    32    39    38   ar
    33    39    40   ar
    34    38    43   ar
    35    38    46    1
    36    43    42   ar
    37    42    45    1
    38    42    41   ar
    39    40    41   ar
    40    40    44    1
    41    46    47    1
    42    46    49    1
    43    41    50    1
    44     1     6   ar
    45     1     9    1
    46    31    26   ar
    47    26    33    1
    48    35    33    1
    49    11     9    1
    50    10     9    1
    51     9    12    1
    52    33    36    1
    53    33    34    1
