@<TRIPOS>MOLECULE
mol_data/opt/m06hf/geoms/mol2/6ia6ia-6ia6ia-.out
 50 53 0 0 0
SMALL
GASTEIGER

@<TRIPOS>ATOM
      1 C          -4.3512   -2.2017    0.1860 C.ar    1  LIG1        0.0389
      2 C          -3.0355   -2.2786   -0.2742 C.ar    1  LIG1       -0.0406
      3 C          -2.4250   -1.1247   -0.7497 C.ar    1  LIG1       -0.0581
      4 C          -3.1337    0.0698   -0.7357 C.ar    1  LIG1       -0.0356
      5 C          -4.4374    0.0617   -0.2329 C.ar    1  LIG1        0.0730
      6 N          -5.0288   -1.0536    0.1978 N.ar    1  LIG1       -0.2518
      7 H          -1.4138   -1.1555   -1.1346 H       1  LIG1        0.0619
      8 H          -2.5136   -3.2258   -0.2671 H       1  LIG1        0.0635
      9 C          -5.0895   -3.4162    0.7090 C.3     1  LIG1       -0.0223
     10 H          -4.4989   -4.3214    0.5764 H       1  LIG1        0.0292
     11 H          -6.0361   -3.5165    0.1787 H       1  LIG1        0.0292
     12 H          -5.3057   -3.2768    1.7686 H       1  LIG1        0.0292
     13 H          -2.7027    0.9806   -1.1255 H       1  LIG1        0.0639
     14 C          -4.8170    2.5614    0.1767 C.ar    1  LIG1        0.0480
     15 C          -5.2842    1.2934   -0.2040 C.ar    1  LIG1        0.0214
     16 C          -6.6267    1.1730   -0.5616 C.ar    1  LIG1       -0.0488
     17 C          -7.4475    2.2890   -0.5651 C.ar    1  LIG1       -0.0350
     18 C          -6.8982    3.5131   -0.1743 C.ar    1  LIG1        0.0730
     19 N          -5.6184    3.6273    0.1795 N.ar    1  LIG1       -0.2512
     20 H          -7.0037    0.1974   -0.8402 H       1  LIG1        0.0625
     21 C          -3.4019    2.8340    0.6542 C.3     1  LIG1       -0.0217
     22 H          -3.4484    3.6665    1.3528 H       1  LIG1        0.0293
     23 H          -2.7666    3.1279   -0.1848 H       1  LIG1        0.0293
     24 H          -2.9682    1.9603    1.1386 H       1  LIG1        0.0293
     25 H          -8.4775    2.2211   -0.8821 H       1  LIG1        0.0639
     26 C          -9.0222    4.8946    0.2291 C.ar    1  LIG1        0.0480
     27 C          -7.6798    4.7874   -0.1702 C.ar    1  LIG1        0.0214
     28 C          -7.0225    5.9517   -0.5696 C.ar    1  LIG1       -0.0488
     29 C          -7.7005    7.1589   -0.5892 C.ar    1  LIG1       -0.0350
     30 C          -9.0361    7.1716   -0.1796 C.ar    1  LIG1        0.0730
     31 N          -9.6652    6.0637    0.2098 N.ar    1  LIG1       -0.2512
     32 H          -5.9825    5.8850   -0.8617 H       1  LIG1        0.0625
     33 C          -9.8436    3.7328    0.7587 C.3     1  LIG1       -0.0217
     34 H          -9.2207    3.0143    1.2899 H       1  LIG1        0.0293
     35 H         -10.3577    3.2217   -0.0590 H       1  LIG1        0.0293
     36 H         -10.5955    4.1455    1.4276 H       1  LIG1        0.0293
     37 H          -7.2208    8.0656   -0.9289 H       1  LIG1        0.0639
     38 C          -9.3932    9.6635    0.2610 C.ar    1  LIG1        0.0473
     39 C          -9.8588    8.4194   -0.1939 C.ar    1  LIG1        0.0214
     40 C         -11.1705    8.3341   -0.6621 C.ar    1  LIG1       -0.0494
     41 C         -11.9558    9.4749   -0.7137 C.ar    1  LIG1       -0.0430
     42 C         -11.3932   10.6688   -0.2712 C.ar    1  LIG1        0.0279
     43 N         -10.1593   10.7571    0.2130 N.ar    1  LIG1       -0.2595
     44 H         -11.5476    7.3689   -0.9749 H       1  LIG1        0.0625
     45 H         -11.9630   11.5906   -0.2941 H       1  LIG1        0.0829
     46 C          -8.0240    9.8753    0.8816 C.3     1  LIG1       -0.0217
     47 H          -8.1183   10.6784    1.6097 H       1  LIG1        0.0293
     48 H          -7.3054   10.1900    0.1213 H       1  LIG1        0.0293
     49 H          -7.6575    8.9708    1.3645 H       1  LIG1        0.0293
     50 H         -12.9721    9.4467   -1.0802 H       1  LIG1        0.0633
@<TRIPOS>BOND
     1     7     3    1
     2    13     4    1
     3    50    41    1
     4    44    40    1
     5    37    29    1
     6    25    17    1
     7    32    28    1
     8    20    16    1
     9     3     4   ar
    10     3     2   ar
    11     4     5   ar
    12    41    40   ar
    13    41    42   ar
    14    40    39   ar
    15    29    28   ar
    16    29    30   ar
    17    28    27   ar
    18    17    16   ar
    19    17    18   ar
    20    16    15   ar
    21    45    42    1
    22     2     8    1
    23     2     1   ar
    24    42    43   ar
    25     5    15    1
    26     5     6   ar
    27    15    14   ar
    28    39    30    1
    29    39    38   ar
    30    23    21    1
    31    30    31   ar
    32    18    27    1
    33    18    19   ar
    34    27    26   ar
    35    35    33    1
    36    48    46    1
    37    14    19   ar
    38    14    21    1
    39    11     9    1
    40     1     6   ar
    41     1     9    1
    42    31    26   ar
    43    43    38   ar
    44    26    33    1
    45    38    46    1
    46    10     9    1
    47    21    24    1
    48    21    22    1
    49     9    12    1
    50    33    34    1
    51    33    36    1
    52    46    49    1
    53    46    47    1
