@<TRIPOS>MOLECULE
mol_data/opt/m06hf/geoms/mol2/6ia6ia-6ia-6ia-.out
 50 53 0 0 0
SMALL
GASTEIGER

@<TRIPOS>ATOM
      1 C          -4.2425   -2.0358    0.7766 C.ar    1  LIG1        0.0389
      2 C          -3.4297   -2.4976   -0.2601 C.ar    1  LIG1       -0.0406
      3 C          -3.2427   -1.6883   -1.3741 C.ar    1  LIG1       -0.0581
      4 C          -3.8521   -0.4408   -1.4128 C.ar    1  LIG1       -0.0356
      5 C          -4.6261   -0.0461   -0.3184 C.ar    1  LIG1        0.0730
      6 N          -4.8251   -0.8375    0.7367 N.ar    1  LIG1       -0.2518
      7 H          -2.6381   -2.0278   -2.2051 H       1  LIG1        0.0619
      8 H          -2.9691   -3.4739   -0.1929 H       1  LIG1        0.0635
      9 C          -4.5068   -2.8626    2.0179 C.3     1  LIG1       -0.0223
     10 H          -4.0782   -3.8593    1.9247 H       1  LIG1        0.0292
     11 H          -5.5824   -2.9402    2.1739 H       1  LIG1        0.0292
     12 H          -4.0719   -2.3607    2.8828 H       1  LIG1        0.0292
     13 H          -3.7550    0.2042   -2.2742 H       1  LIG1        0.0639
     14 C          -4.7732    2.4787   -0.7167 C.ar    1  LIG1        0.0480
     15 C          -5.3383    1.2681   -0.2844 C.ar    1  LIG1        0.0214
     16 C          -6.6280    1.3000    0.2466 C.ar    1  LIG1       -0.0488
     17 C          -7.3314    2.4925    0.2811 C.ar    1  LIG1       -0.0350
     18 C          -6.7069    3.6398   -0.2163 C.ar    1  LIG1        0.0730
     19 N          -5.4599    3.6220   -0.6806 N.ar    1  LIG1       -0.2512
     20 H          -7.0512    0.3830    0.6361 H       1  LIG1        0.0625
     21 C          -3.3455    2.6169   -1.2142 C.3     1  LIG1       -0.0217
     22 H          -3.0064    3.6188   -0.9574 H       1  LIG1        0.0293
     23 H          -3.3082    2.5149   -2.3011 H       1  LIG1        0.0293
     24 H          -2.6909    1.8721   -0.7643 H       1  LIG1        0.0293
     25 H          -8.3250    2.5496    0.7032 H       1  LIG1        0.0639
     26 C          -6.8164    6.1443    0.1894 C.ar    1  LIG1        0.0480
     27 C          -7.4274    4.9475   -0.2345 C.ar    1  LIG1        0.0214
     28 C          -8.7501    5.0025   -0.6626 C.ar    1  LIG1       -0.0488
     29 C          -9.4251    6.2164   -0.6715 C.ar    1  LIG1       -0.0350
     30 C          -8.7386    7.3527   -0.2466 C.ar    1  LIG1        0.0730
     31 N          -7.4734    7.3014    0.1759 N.ar    1  LIG1       -0.2512
     32 H          -9.2433    4.0978   -0.9978 H       1  LIG1        0.0625
     33 C          -5.3927    6.2021    0.7052 C.3     1  LIG1       -0.0217
     34 H          -5.2563    7.1665    1.1896 H       1  LIG1        0.0293
     35 H          -4.6937    6.0934   -0.1233 H       1  LIG1        0.0293
     36 H          -5.2035    5.3913    1.4095 H       1  LIG1        0.0293
     37 H         -10.4592    6.2842   -0.9805 H       1  LIG1        0.0639
     38 C          -9.2962    9.5821    0.8299 C.ar    1  LIG1        0.0473
     39 C          -9.4048    8.6897   -0.2548 C.ar    1  LIG1        0.0214
     40 C         -10.1651    9.0739   -1.3556 C.ar    1  LIG1       -0.0494
     41 C         -10.7889   10.3161   -1.3613 C.ar    1  LIG1       -0.0430
     42 C         -10.6208   11.1267   -0.2467 C.ar    1  LIG1        0.0279
     43 N          -9.9014   10.7694    0.8161 N.ar    1  LIG1       -0.2595
     44 H         -10.2461    8.4112   -2.2090 H       1  LIG1        0.0625
     45 H         -11.0830   12.1059   -0.1995 H       1  LIG1        0.0829
     46 C          -8.5102    9.2563    2.0836 C.3     1  LIG1       -0.0217
     47 H          -8.7939    9.9782    2.8458 H       1  LIG1        0.0293
     48 H          -7.4420    9.3206    1.8792 H       1  LIG1        0.0293
     49 H          -8.7225    8.2410    2.4208 H       1  LIG1        0.0293
     50 H         -11.3787   10.6484   -2.2039 H       1  LIG1        0.0633
@<TRIPOS>BOND
     1    23    21    1
     2    13     4    1
     3    44    40    1
     4     7     3    1
     5    50    41    1
     6     4     3   ar
     7     4     5   ar
     8     3     2   ar
     9    41    40   ar
    10    41    42   ar
    11    40    39   ar
    12    21    22    1
    13    21    24    1
    14    21    14    1
    15    32    28    1
    16    37    29    1
    17    14    19   ar
    18    14    15   ar
    19    19    18   ar
    20    29    28   ar
    21    29    30   ar
    22    28    27   ar
    23     5    15    1
    24     5     6   ar
    25    15    16   ar
    26     2     8    1
    27     2     1   ar
    28    39    30    1
    29    39    38   ar
    30    42    45    1
    31    42    43   ar
    32    30    31   ar
    33    27    18    1
    34    27    26   ar
    35    18    17   ar
    36    35    33    1
    37    31    26   ar
    38    26    33    1
    39    16    17   ar
    40    16    20    1
    41    17    25    1
    42    33    34    1
    43    33    36    1
    44     6     1   ar
    45     1     9    1
    46    43    38   ar
    47    38    46    1
    48    48    46    1
    49    10     9    1
    50     9    11    1
    51     9    12    1
    52    46    49    1
    53    46    47    1
