@<TRIPOS>MOLECULE
mol_data/opt/m06hf/geoms/mol2/6ia6ia6ia6ia.out
 50 53 0 0 0
SMALL
GASTEIGER

@<TRIPOS>ATOM
      1 C          -3.7585   -1.8978   -0.6964 C.ar    1  LIG1        0.0389
      2 C          -2.9443   -2.1931    0.3988 C.ar    1  LIG1       -0.0406
      3 C          -2.9944   -1.3655    1.5140 C.ar    1  LIG1       -0.0581
      4 C          -3.8475   -0.2696    1.5015 C.ar    1  LIG1       -0.0356
      5 C          -4.6169   -0.0408    0.3571 C.ar    1  LIG1        0.0730
      6 N          -4.5717   -0.8411   -0.7076 N.ar    1  LIG1       -0.2518
      7 H          -2.3870   -1.5774    2.3844 H       1  LIG1        0.0619
      8 H          -2.2958   -3.0584    0.3732 H       1  LIG1        0.0635
      9 C          -3.7658   -2.7534   -1.9458 C.3     1  LIG1       -0.0223
     10 H          -3.1641   -3.6510   -1.8110 H       1  LIG1        0.0292
     11 H          -3.3704   -2.1748   -2.7812 H       1  LIG1        0.0292
     12 H          -4.7929   -3.0332   -2.1800 H       1  LIG1        0.0292
     13 H          -3.9401    0.3821    2.3593 H       1  LIG1        0.0639
     14 C          -6.8382    1.0446   -0.2235 C.ar    1  LIG1        0.0480
     15 C          -5.5280    1.1409    0.2852 C.ar    1  LIG1        0.0214
     16 C          -5.0910    2.3807    0.7413 C.ar    1  LIG1       -0.0488
     17 C          -5.9368    3.4804    0.6761 C.ar    1  LIG1       -0.0350
     18 C          -7.2108    3.2968    0.1414 C.ar    1  LIG1        0.0730
     19 N          -7.6391    2.1059   -0.2829 N.ar    1  LIG1       -0.2512
     20 H          -4.0862    2.4848    1.1330 H       1  LIG1        0.0625
     21 C          -7.4322   -0.2573   -0.7219 C.3     1  LIG1       -0.0217
     22 H          -7.2153   -1.0712   -0.0293 H       1  LIG1        0.0293
     23 H          -6.9961   -0.5168   -1.6860 H       1  LIG1        0.0293
     24 H          -8.5062   -0.1145   -0.8184 H       1  LIG1        0.0293
     25 H          -5.6286    4.4504    1.0412 H       1  LIG1        0.0639
     26 C          -9.5122    4.3478    0.3585 C.ar    1  LIG1        0.0480
     27 C          -8.1523    4.4476    0.0075 C.ar    1  LIG1        0.0214
     28 C          -7.6867    5.6684   -0.4717 C.ar    1  LIG1       -0.0488
     29 C          -8.5608    6.7394   -0.6026 C.ar    1  LIG1       -0.0350
     30 C          -9.8960    6.5447   -0.2512 C.ar    1  LIG1        0.0730
     31 N         -10.3418    5.3799    0.2242 N.ar    1  LIG1       -0.2512
     32 H          -6.6461    5.7731   -0.7544 H       1  LIG1        0.0625
     33 C         -10.1241    3.0819    0.9226 C.3     1  LIG1       -0.0217
     34 H          -9.4687    2.6341    1.6699 H       1  LIG1        0.0293
     35 H         -10.2681    2.3529    0.1259 H       1  LIG1        0.0293
     36 H         -11.0814    3.3475    1.3660 H       1  LIG1        0.0293
     37 H          -8.2202    7.7036   -0.9536 H       1  LIG1        0.0639
     38 C         -11.8474    7.9436    0.5786 C.ar    1  LIG1        0.0473
     39 C         -10.8899    7.6482   -0.4110 C.ar    1  LIG1        0.0214
     40 C         -10.8756    8.4202   -1.5695 C.ar    1  LIG1       -0.0494
     41 C         -11.7958    9.4503   -1.7230 C.ar    1  LIG1       -0.0430
     42 C         -12.7005    9.6644   -0.6916 C.ar    1  LIG1        0.0279
     43 N         -12.7232    8.9366    0.4236 N.ar    1  LIG1       -0.2595
     44 H         -10.1622    8.1962   -2.3535 H       1  LIG1        0.0625
     45 H         -13.4418   10.4521   -0.7601 H       1  LIG1        0.0829
     46 C         -11.9442    7.1774    1.8826 C.3     1  LIG1       -0.0217
     47 H         -10.9569    7.0370    2.3241 H       1  LIG1        0.0293
     48 H         -12.3698    6.1908    1.7020 H       1  LIG1        0.0293
     49 H         -12.5832    7.7489    2.5516 H       1  LIG1        0.0293
     50 H         -11.8165   10.0625   -2.6135 H       1  LIG1        0.0633
@<TRIPOS>BOND
     1    11     9    1
     2    50    41    1
     3    44    40    1
     4    12     9    1
     5     9    10    1
     6     9     1    1
     7    41    40   ar
     8    41    42   ar
     9    23    21    1
    10    40    39   ar
    11    37    29    1
    12    24    21    1
    13    45    42    1
    14    32    28    1
    15    21    14    1
    16    21    22    1
    17     6     1   ar
    18     6     5   ar
    19     1     2   ar
    20    42    43   ar
    21    29    28   ar
    22    29    30   ar
    23    28    27   ar
    24    39    30    1
    25    39    38   ar
    26    19    14   ar
    27    19    18   ar
    28    30    31   ar
    29    14    15   ar
    30    27    18    1
    31    27    26   ar
    32    35    33    1
    33    18    17   ar
    34    31    26   ar
    35    15     5    1
    36    15    16   ar
    37     5     4   ar
    38    26    33    1
    39     8     2    1
    40     2     3   ar
    41    43    38   ar
    42    38    46    1
    43    17    16   ar
    44    17    25    1
    45    16    20    1
    46    33    36    1
    47    33    34    1
    48     4     3   ar
    49     4    13    1
    50     3     7    1
    51    48    46    1
    52    46    47    1
    53    46    49    1
