@<TRIPOS>MOLECULE
mol_data/opt/m06hf/geoms/mol2/6ia6ia6ia6ia-.out
 50 53 0 0 0
SMALL
GASTEIGER

@<TRIPOS>ATOM
      1 C          -4.0787   -2.0888   -0.6736 C.ar    1  LIG1        0.0389
      2 C          -2.9784   -2.2247    0.1752 C.ar    1  LIG1       -0.0406
      3 C          -2.6934   -1.2023    1.0723 C.ar    1  LIG1       -0.0581
      4 C          -3.5062   -0.0766    1.0907 C.ar    1  LIG1       -0.0356
      5 C          -4.5783   -0.0180    0.1959 C.ar    1  LIG1        0.0730
      6 N          -4.8543   -1.0042   -0.6567 N.ar    1  LIG1       -0.2518
      7 H          -1.8559   -1.2859    1.7528 H       1  LIG1        0.0619
      8 H          -2.3693   -3.1175    0.1326 H       1  LIG1        0.0635
      9 C          -4.4629   -3.1628   -1.6700 C.3     1  LIG1       -0.0223
     10 H          -3.7884   -4.0155   -1.6088 H       1  LIG1        0.0292
     11 H          -4.4326   -2.7458   -2.6766 H       1  LIG1        0.0292
     12 H          -5.4830   -3.4898   -1.4667 H       1  LIG1        0.0292
     13 H          -3.3374    0.7307    1.7901 H       1  LIG1        0.0639
     14 C          -6.8666    1.0769    0.1088 C.ar    1  LIG1        0.0480
     15 C          -5.4633    1.1850    0.1568 C.ar    1  LIG1        0.0214
     16 C          -4.9031    2.4582    0.1793 C.ar    1  LIG1       -0.0488
     17 C          -5.7257    3.5769    0.1424 C.ar    1  LIG1       -0.0350
     18 C          -7.1036    3.3762    0.0781 C.ar    1  LIG1        0.0730
     19 N          -7.6449    2.1556    0.0720 N.ar    1  LIG1       -0.2512
     20 H          -3.8260    2.5706    0.2124 H       1  LIG1        0.0625
     21 C          -7.5857   -0.2566    0.1135 C.3     1  LIG1       -0.0217
     22 H          -7.1580   -0.9220    0.8643 H       1  LIG1        0.0293
     23 H          -7.4794   -0.7385   -0.8578 H       1  LIG1        0.0293
     24 H          -8.6350   -0.0661    0.3285 H       1  LIG1        0.0293
     25 H          -5.3170    4.5774    0.1783 H       1  LIG1        0.0639
     26 C          -9.2275    4.5992    0.7477 C.ar    1  LIG1        0.0480
     27 C          -8.0371    4.5381   -0.0025 C.ar    1  LIG1        0.0214
     28 C          -7.7447    5.6008   -0.8520 C.ar    1  LIG1       -0.0488
     29 C          -8.6094    6.6845   -0.9335 C.ar    1  LIG1       -0.0350
     30 C          -9.7533    6.6734   -0.1374 C.ar    1  LIG1        0.0730
     31 N         -10.0438    5.6469    0.6669 N.ar    1  LIG1       -0.2512
     32 H          -6.8577    5.5619   -1.4728 H       1  LIG1        0.0625
     33 C          -9.6576    3.5017    1.7000 C.3     1  LIG1       -0.0217
     34 H          -8.8160    3.1594    2.3027 H       1  LIG1        0.0293
     35 H         -10.0290    2.6472    1.1350 H       1  LIG1        0.0293
     36 H         -10.4423    3.9060    2.3350 H       1  LIG1        0.0293
     37 H          -8.4211    7.4985   -1.6183 H       1  LIG1        0.0639
     38 C         -10.4530    9.1338   -0.2676 C.ar    1  LIG1        0.0473
     39 C         -10.7700    7.7687   -0.1805 C.ar    1  LIG1        0.0214
     40 C         -12.1163    7.4061   -0.1109 C.ar    1  LIG1       -0.0494
     41 C         -13.0952    8.3842   -0.1810 C.ar    1  LIG1       -0.0430
     42 C         -12.6813    9.7076   -0.3047 C.ar    1  LIG1        0.0279
     43 N         -11.4038   10.0704   -0.3316 N.ar    1  LIG1       -0.2595
     44 H         -12.3638    6.3581   -0.0006 H       1  LIG1        0.0625
     45 H         -13.4067   10.5103   -0.3712 H       1  LIG1        0.0829
     46 C          -9.0352    9.6770   -0.2519 C.3     1  LIG1       -0.0217
     47 H          -9.0749   10.6701    0.1903 H       1  LIG1        0.0293
     48 H          -8.6516    9.7749   -1.2702 H       1  LIG1        0.0293
     49 H          -8.3652    9.0363    0.3197 H       1  LIG1        0.0293
     50 H         -14.1465    8.1371   -0.1404 H       1  LIG1        0.0633
@<TRIPOS>BOND
     1    11     9    1
     2     9    10    1
     3     9    12    1
     4     9     1    1
     5    37    29    1
     6    32    28    1
     7    48    46    1
     8    29    28   ar
     9    29    30   ar
    10    23    21    1
    11    28    27   ar
    12     1     6   ar
    13     1     2   ar
    14     6     5   ar
    15    45    42    1
    16    43    42   ar
    17    43    38   ar
    18    42    41   ar
    19    38    46    1
    20    38    39   ar
    21    46    47    1
    22    46    49    1
    23    41    50    1
    24    41    40   ar
    25    39    30    1
    26    39    40   ar
    27    30    31   ar
    28    40    44    1
    29    27    18    1
    30    27    26   ar
    31    19    18   ar
    32    19    14   ar
    33    18    17   ar
    34    14    21    1
    35    14    15   ar
    36    21    24    1
    37    21    22    1
    38     8     2    1
    39    17    25    1
    40    17    16   ar
    41    15    16   ar
    42    15     5    1
    43     2     3   ar
    44    16    20    1
    45     5     4   ar
    46    31    26   ar
    47    26    33    1
    48     3     4   ar
    49     3     7    1
    50     4    13    1
    51    35    33    1
    52    33    34    1
    53    33    36    1
