@<TRIPOS>MOLECULE
mol_data/opt/m06hf/geoms/mol2/6ia6ia6ia-6ia.out
 50 53 0 0 0
SMALL
GASTEIGER

@<TRIPOS>ATOM
      1 C          -4.3047   -2.2167   -0.4424 C.ar    1  LIG1        0.0389
      2 C          -2.9994   -2.2482    0.0521 C.ar    1  LIG1       -0.0406
      3 C          -2.4492   -1.0806    0.5668 C.ar    1  LIG1       -0.0581
      4 C          -3.2127    0.0796    0.5686 C.ar    1  LIG1       -0.0356
      5 C          -4.5071    0.0225    0.0450 C.ar    1  LIG1        0.0730
      6 N          -5.0343   -1.1007   -0.4416 N.ar    1  LIG1       -0.2518
      7 H          -1.4443   -1.0764    0.9690 H       1  LIG1        0.0619
      8 H          -2.4372   -3.1721    0.0359 H       1  LIG1        0.0635
      9 C          -4.9718   -3.4455   -1.0246 C.3     1  LIG1       -0.0223
     10 H          -4.3667   -4.3359   -0.8615 H       1  LIG1        0.0292
     11 H          -5.1202   -3.3011   -2.0955 H       1  LIG1        0.0292
     12 H          -5.9486   -3.5760   -0.5597 H       1  LIG1        0.0292
     13 H          -2.8344    1.0043    0.9824 H       1  LIG1        0.0639
     14 C          -6.7085    1.2420    0.3935 C.ar    1  LIG1        0.0480
     15 C          -5.3553    1.2515    0.0018 C.ar    1  LIG1        0.0214
     16 C          -4.8130    2.4511   -0.4463 C.ar    1  LIG1       -0.0488
     17 C          -5.5970    3.5978   -0.4841 C.ar    1  LIG1       -0.0350
     18 C          -6.9176    3.5049   -0.0495 C.ar    1  LIG1        0.0730
     19 N          -7.4462    2.3483    0.3627 N.ar    1  LIG1       -0.2512
     20 H          -3.7870    2.4799   -0.7936 H       1  LIG1        0.0625
     21 C          -7.4093   -0.0074    0.8877 C.3     1  LIG1       -0.0217
     22 H          -6.7926   -0.5304    1.6196 H       1  LIG1        0.0293
     23 H          -7.5846   -0.6868    0.0543 H       1  LIG1        0.0293
     24 H          -8.3522    0.2979    1.3352 H       1  LIG1        0.0293
     25 H          -5.2040    4.5274   -0.8685 H       1  LIG1        0.0639
     26 C          -7.4997    5.9836    0.2558 C.ar    1  LIG1        0.0480
     27 C          -7.8572    4.6666   -0.0749 C.ar    1  LIG1        0.0214
     28 C          -9.1819    4.4225   -0.4391 C.ar    1  LIG1       -0.0488
     29 C         -10.0894    5.4666   -0.4973 C.ar    1  LIG1       -0.0350
     30 C          -9.6448    6.7477   -0.1591 C.ar    1  LIG1        0.0730
     31 N          -8.3838    6.9812    0.2019 N.ar    1  LIG1       -0.2512
     32 H          -9.4742    3.4081   -0.6779 H       1  LIG1        0.0625
     33 C          -6.1198    6.3927    0.7394 C.3     1  LIG1       -0.0217
     34 H          -6.2451    7.2614    1.3818 H       1  LIG1        0.0293
     35 H          -5.4890    6.6812   -0.1051 H       1  LIG1        0.0293
     36 H          -5.6328    5.5868    1.2867 H       1  LIG1        0.0293
     37 H         -11.1083    5.3038   -0.8170 H       1  LIG1        0.0639
     38 C         -11.8744    7.9574    0.1858 C.ar    1  LIG1        0.0473
     39 C         -10.5329    7.9482   -0.2304 C.ar    1  LIG1        0.0214
     40 C          -9.9847    9.1343   -0.7206 C.ar    1  LIG1       -0.0494
     41 C         -10.7802   10.2637   -0.8324 C.ar    1  LIG1       -0.0430
     42 C         -12.1083   10.1628   -0.4282 C.ar    1  LIG1        0.0279
     43 N         -12.6329    9.0519    0.0770 N.ar    1  LIG1       -0.2595
     44 H          -8.9397    9.1441   -1.0023 H       1  LIG1        0.0625
     45 H         -12.7757   11.0138   -0.5017 H       1  LIG1        0.0829
     46 C         -12.5679    6.7692    0.8274 C.3     1  LIG1       -0.0217
     47 H         -11.8657    6.1417    1.3744 H       1  LIG1        0.0293
     48 H         -13.0696    6.1641    0.0683 H       1  LIG1        0.0293
     49 H         -13.3263    7.1618    1.5012 H       1  LIG1        0.0293
     50 H         -10.3895   11.1952   -1.2169 H       1  LIG1        0.0633
@<TRIPOS>BOND
     1    11     9    1
     2    50    41    1
     3     9    10    1
     4     9    12    1
     5     9     1    1
     6    44    40    1
     7    25    17    1
     8    41    40   ar
     9    41    42   ar
    10    37    29    1
    11    20    16    1
    12    40    39   ar
    13    32    28    1
    14    45    42    1
    15    29    28   ar
    16    29    30   ar
    17    17    16   ar
    18    17    18   ar
    19    16    15   ar
    20     1     6   ar
    21     1     2   ar
    22     6     5   ar
    23    28    27   ar
    24    42    43   ar
    25    39    30    1
    26    39    38   ar
    27    30    31   ar
    28    35    33    1
    29    27    18    1
    30    27    26   ar
    31    18    19   ar
    32    15     5    1
    33    15    14   ar
    34     8     2    1
    35     5     4   ar
    36     2     3   ar
    37    23    21    1
    38    48    46    1
    39    43    38   ar
    40    38    46    1
    41    31    26   ar
    42    26    33    1
    43    19    14   ar
    44    14    21    1
    45     3     4   ar
    46     3     7    1
    47     4    13    1
    48    33    36    1
    49    33    34    1
    50    46    47    1
    51    46    49    1
    52    21    24    1
    53    21    22    1
