@<TRIPOS>MOLECULE
mol_data/opt/m06hf/geoms/mol2/6ia6ia-4ia6ia.out
 51 54 0 0 0
SMALL
GASTEIGER

@<TRIPOS>ATOM
      1 C          -4.3548   -2.1378    0.3788 C.ar    1  LIG1        0.0389
      2 C          -3.1993   -2.3644   -0.3706 C.ar    1  LIG1       -0.0406
      3 C          -2.6890   -1.3271   -1.1416 C.ar    1  LIG1       -0.0581
      4 C          -3.3312   -0.0954   -1.1285 C.ar    1  LIG1       -0.0356
      5 C          -4.4665    0.0531   -0.3270 C.ar    1  LIG1        0.0730
      6 N          -4.9672   -0.9541    0.3908 N.ar    1  LIG1       -0.2518
      7 H          -1.8087   -1.4781   -1.7530 H       1  LIG1        0.0619
      8 H          -2.7259   -3.3367   -0.3551 H       1  LIG1        0.0635
      9 C          -4.9827   -3.2199    1.2325 C.3     1  LIG1       -0.0223
     10 H          -4.4765   -4.1739    1.0932 H       1  LIG1        0.0292
     11 H          -6.0340   -3.3219    0.9645 H       1  LIG1        0.0292
     12 H          -4.9248   -2.9285    2.2816 H       1  LIG1        0.0292
     13 H          -2.9822    0.7248   -1.7392 H       1  LIG1        0.0639
     14 C          -4.6528    2.6058   -0.2238 C.ar    1  LIG1        0.0480
     15 C          -5.2393    1.3317   -0.2698 C.ar    1  LIG1        0.0214
     16 C          -6.6317    1.2506   -0.2185 C.ar    1  LIG1       -0.0488
     17 C          -7.3895    2.4085   -0.1827 C.ar    1  LIG1       -0.0350
     18 C          -6.7216    3.6369   -0.1877 C.ar    1  LIG1        0.0716
     19 N          -5.3927    3.7161   -0.1896 N.ar    1  LIG1       -0.2512
     20 H          -7.0933    0.2718   -0.1957 H       1  LIG1        0.0625
     21 C          -3.1548    2.8474   -0.1637 C.3     1  LIG1       -0.0217
     22 H          -2.9961    3.7703    0.3912 H       1  LIG1        0.0293
     23 H          -2.7490    2.9829   -1.1689 H       1  LIG1        0.0293
     24 H          -2.6346    2.0231    0.3221 H       1  LIG1        0.0293
     25 H          -8.4686    2.3749   -0.1261 H       1  LIG1        0.0639
     26 C          -7.1416    5.9830    0.6689 C.ar    1  LIG1       -0.0407
     27 C          -7.9246    7.1366    0.6342 C.ar    1  LIG1       -0.0504
     28 C          -7.4925    4.9185   -0.1776 C.ar    1  LIG1        0.0033
     29 C          -9.0286    7.2617   -0.2118 C.ar    1  LIG1       -0.0159
     30 H          -7.6838    7.9580    1.3000 H       1  LIG1        0.0626
     31 C          -8.5941    5.0392   -1.0278 C.ar    1  LIG1       -0.0517
     32 C          -9.3579    6.1992   -1.0529 C.ar    1  LIG1       -0.0533
     33 H          -8.8357    4.2218   -1.6964 H       1  LIG1        0.0624
     34 C          -5.9663    5.9093    1.6281 C.3     1  LIG1       -0.0391
     35 H          -6.0454    6.7079    2.3655 H       1  LIG1        0.0278
     36 H          -5.0296    6.0067    1.0807 H       1  LIG1        0.0278
     37 H          -5.9488    4.9473    2.1409 H       1  LIG1        0.0278
     38 H         -10.1938    6.2900   -1.7348 H       1  LIG1        0.0624
     39 C         -11.1992    8.5490    0.0571 C.ar    1  LIG1        0.0459
     40 C          -9.8213    8.5282   -0.2219 C.ar    1  LIG1        0.0032
     41 C          -9.1888    9.7390   -0.4998 C.ar    1  LIG1       -0.0509
     42 C          -9.9289   10.9143   -0.5139 C.ar    1  LIG1       -0.0430
     43 C         -11.2896   10.8267   -0.2426 C.ar    1  LIG1        0.0279
     44 N         -11.9044    9.6811    0.0408 N.ar    1  LIG1       -0.2596
     45 H          -8.1272    9.7455   -0.7160 H       1  LIG1        0.0625
     46 H         -11.9129   11.7132   -0.2454 H       1  LIG1        0.0829
     47 C         -11.9757    7.2964    0.4173 C.3     1  LIG1       -0.0218
     48 H         -11.3498    6.5892    0.9599 H       1  LIG1        0.0293
     49 H         -12.3483    6.8090   -0.4860 H       1  LIG1        0.0293
     50 H         -12.8280    7.5959    1.0233 H       1  LIG1        0.0293
     51 H          -9.4698   11.8682   -0.7319 H       1  LIG1        0.0633
@<TRIPOS>BOND
     1     7     3    1
     2    13     4    1
     3    38    32    1
     4    33    31    1
     5    23    21    1
     6     3     4   ar
     7     3     2   ar
     8     4     5   ar
     9    32    31   ar
    10    32    29   ar
    11    31    28   ar
    12    51    42    1
    13    45    41    1
    14    42    41   ar
    15    42    43   ar
    16    41    40   ar
    17    49    47    1
    18     2     8    1
    19     2     1   ar
    20     5    15    1
    21     5     6   ar
    22    15    14   ar
    23    15    16   ar
    24    46    43    1
    25    43    44   ar
    26    14    19   ar
    27    14    21    1
    28    40    29    1
    29    40    39   ar
    30    16    20    1
    31    16    17   ar
    32    29    27   ar
    33    19    18   ar
    34    18    17   ar
    35    18    28    1
    36    17    25    1
    37    28    26   ar
    38    21    24    1
    39    21    22    1
    40    44    39   ar
    41    39    47    1
    42     1     6   ar
    43     1     9    1
    44    47    48    1
    45    47    50    1
    46    27    26   ar
    47    27    30    1
    48    26    34    1
    49    11     9    1
    50    36    34    1
    51    10     9    1
    52     9    12    1
    53    34    37    1
    54    34    35    1
