@<TRIPOS>MOLECULE
mol_data/opt/m06hf/geoms/mol2/6ia6ia-6ia.out
 38 40 0 0 0
SMALL
GASTEIGER

@<TRIPOS>ATOM
      1 C          -4.4188   -2.1228    0.0570 C.ar    1  LIG1        0.0389
      2 C          -3.0520   -2.1747   -0.2222 C.ar    1  LIG1       -0.0406
      3 C          -2.3839   -0.9910   -0.5103 C.ar    1  LIG1       -0.0581
      4 C          -3.0892    0.2054   -0.4914 C.ar    1  LIG1       -0.0356
      5 C          -4.4494    0.1696   -0.1711 C.ar    1  LIG1        0.0730
      6 N          -5.0923   -0.9727    0.0767 N.ar    1  LIG1       -0.2518
      7 H          -1.3296   -0.9994   -0.7552 H       1  LIG1        0.0619
      8 H          -2.5351   -3.1247   -0.2246 H       1  LIG1        0.0635
      9 C          -5.2226   -3.3707    0.3587 C.3     1  LIG1       -0.0223
     10 H          -4.5962   -4.2605    0.3157 H       1  LIG1        0.0292
     11 H          -6.0320   -3.4609   -0.3659 H       1  LIG1        0.0292
     12 H          -5.6622   -3.2824    1.3521 H       1  LIG1        0.0292
     13 H          -2.6098    1.1410   -0.7395 H       1  LIG1        0.0639
     14 C          -4.8745    2.6387    0.3693 C.ar    1  LIG1        0.0480
     15 C          -5.2943    1.4029   -0.1481 C.ar    1  LIG1        0.0214
     16 C          -6.5896    1.3159   -0.6586 C.ar    1  LIG1       -0.0488
     17 C          -7.4056    2.4347   -0.6754 C.ar    1  LIG1       -0.0350
     18 C          -6.9033    3.6265   -0.1470 C.ar    1  LIG1        0.0730
     19 N          -5.6715    3.7083    0.3548 N.ar    1  LIG1       -0.2512
     20 H          -6.9325    0.3634   -1.0412 H       1  LIG1        0.0625
     21 C          -3.5245    2.8683    1.0248 C.3     1  LIG1       -0.0217
     22 H          -3.6519    3.6558    1.7646 H       1  LIG1        0.0293
     23 H          -2.7940    3.2097    0.2873 H       1  LIG1        0.0293
     24 H          -3.1519    1.9628    1.5014 H       1  LIG1        0.0293
     25 H          -8.3962    2.3957   -1.1038 H       1  LIG1        0.0639
     26 C          -9.0629    4.9780    0.1197 C.ar    1  LIG1        0.0473
     27 C          -7.6872    4.8999   -0.1526 C.ar    1  LIG1        0.0214
     28 C          -6.9993    6.0835   -0.4250 C.ar    1  LIG1       -0.0494
     29 C          -7.6891    7.2847   -0.4693 C.ar    1  LIG1       -0.0430
     30 C          -9.0585    7.2542   -0.2214 C.ar    1  LIG1        0.0279
     31 N          -9.7190    6.1413    0.0776 N.ar    1  LIG1       -0.2595
     32 H          -5.9310    6.0343   -0.5933 H       1  LIG1        0.0625
     33 H          -9.6469    8.1639   -0.2501 H       1  LIG1        0.0829
     34 C          -9.9153    3.7890    0.5248 C.3     1  LIG1       -0.0217
     35 H          -9.3341    3.0407    1.0617 H       1  LIG1        0.0293
     36 H         -10.3670    3.3256   -0.3558 H       1  LIG1        0.0293
     37 H         -10.7170    4.1665    1.1559 H       1  LIG1        0.0293
     38 H          -7.1882    8.2173   -0.6866 H       1  LIG1        0.0633
@<TRIPOS>BOND
     1    25    17    1
     2    20    16    1
     3     7     3    1
     4    13     4    1
     5    38    29    1
     6    17    16   ar
     7    17    18   ar
     8    16    15   ar
     9    32    28    1
    10     3     4   ar
    11     3     2   ar
    12     4     5   ar
    13    29    28   ar
    14    29    30   ar
    15    28    27   ar
    16    11     9    1
    17    36    34    1
    18    33    30    1
    19     8     2    1
    20     2     1   ar
    21    30    31   ar
    22     5    15    1
    23     5     6   ar
    24    27    18    1
    25    27    26   ar
    26    15    14   ar
    27    18    19   ar
    28     1     6   ar
    29     1     9    1
    30    31    26   ar
    31    26    34    1
    32    23    21    1
    33    10     9    1
    34    19    14   ar
    35     9    12    1
    36    14    21    1
    37    34    35    1
    38    34    37    1
    39    21    24    1
    40    21    22    1
