@<TRIPOS>MOLECULE
mol_data/opt/m06hf/geoms/mol2/6id13el-13ah-4dd.out
 51 54 0 0 0
SMALL
GASTEIGER

@<TRIPOS>ATOM
      1 C          -4.4653   -2.1182    0.3831 C.ar    1  LIG1        0.0390
      2 C          -3.0967   -2.2405    0.1219 C.ar    1  LIG1       -0.0394
      3 C          -2.3869   -1.1088   -0.2408 C.ar    1  LIG1       -0.0405
      4 C          -3.0433    0.1220   -0.2922 C.ar    1  LIG1        0.0792
      5 C          -4.3989    0.1713    0.0677 C.ar    1  LIG1        0.1060
      6 N          -5.0817   -0.9388    0.3580 N.ar    1  LIG1       -0.2491
      7 H          -1.3398   -1.1625   -0.5079 H       1  LIG1        0.0632
      8 H          -2.6159   -3.2069    0.1730 H       1  LIG1        0.0636
      9 C          -5.3282   -3.3174    0.7109 C.3     1  LIG1       -0.0223
     10 H          -4.7271   -4.2208    0.7956 H       1  LIG1        0.0292
     11 H          -6.0705   -3.4513   -0.0770 H       1  LIG1        0.0292
     12 H          -5.8502   -3.1348    1.6494 H       1  LIG1        0.0292
     13 N          -1.7218    2.1017   -1.3132 N.1     1  LIG1       -0.1908
     14 C          -2.3316    1.2593   -0.8280 C.1     1  LIG1        0.1014
     15 C          -5.1929    1.4078    0.1118 C.ar    1  LIG1        0.0859
     16 C          -4.9053    2.7257    0.4510 C.ar    1  LIG1        0.0937
     17 C          -6.1328    3.4438    0.3402 C.ar    1  LIG1        0.1626
     18 C          -7.1153    2.5539   -0.0446 C.ar    1  LIG1        0.1069
     19 N          -6.5203    1.3290   -0.1603 N.ar    1  LIG1       -0.3479
     20 H          -6.9554    0.4653   -0.4494 H       1  LIG1        0.1661
     21 C          -3.6886    3.2551    0.9844 C.1     1  LIG1       -0.0638
     22 C          -2.6841    3.7214    1.4516 C.1     1  LIG1       -0.1137
     23 H          -1.7851    4.1245    1.8564 H       1  LIG1        0.1232
     24 O          -6.3378    4.7562    0.6057 O.3     1  LIG1       -0.4917
     25 C          -5.6186    5.6399   -0.2573 C.3     1  LIG1        0.0789
     26 H          -5.8954    6.6462    0.0464 H       1  LIG1        0.0660
     27 H          -4.5446    5.4928   -0.1414 H       1  LIG1        0.0660
     28 H          -5.9103    5.4620   -1.2946 H       1  LIG1        0.0660
     29 C          -8.5417    2.7678   -0.2536 C.ar    1  LIG1        0.0688
     30 C          -9.2256    3.8839   -0.6794 C.ar    1  LIG1       -0.0135
     31 C         -10.6133    3.5657   -0.6643 C.ar    1  LIG1        0.0509
     32 C         -10.7251    2.2537   -0.2321 C.ar    1  LIG1        0.0692
     33 N          -9.4536    1.7829    0.0035 N.ar    1  LIG1       -0.3514
     34 H          -9.2538    0.9560    0.5469 H       1  LIG1        0.1660
     35 H          -8.7784    4.8191   -0.9730 H       1  LIG1        0.0658
     36 N         -11.6906    4.3650   -1.1035 N.pl3   1  LIG1       -0.3563
     37 H         -11.3786    5.0742   -1.7563 H       1  LIG1        0.1424
     38 H         -12.1839    4.8051   -0.3315 H       1  LIG1        0.1424
     39 C         -13.1139    1.7564    0.3894 C.ar    1  LIG1        0.0610
     40 C         -14.2187    0.8999    0.4124 C.ar    1  LIG1       -0.0425
     41 C         -11.8845    1.3614   -0.1598 C.ar    1  LIG1        0.0187
     42 C         -14.1075   -0.3872   -0.0865 C.ar    1  LIG1       -0.0431
     43 H         -15.1483    1.2479    0.8408 H       1  LIG1        0.0631
     44 C         -11.7853    0.0579   -0.6588 C.ar    1  LIG1       -0.0339
     45 C         -12.8790   -0.7996   -0.6113 C.ar    1  LIG1        0.0525
     46 H         -10.8615   -0.2724   -1.1144 H       1  LIG1        0.0637
     47 H         -14.9465   -1.0679   -0.0700 H       1  LIG1        0.0631
     48 N         -13.3760    4.0633    1.5498 N.1     1  LIG1       -0.1908
     49 C         -13.2465    3.0527    1.0197 C.1     1  LIG1        0.0998
     50 N         -12.6244   -3.2086   -1.5497 N.1     1  LIG1       -0.1909
     51 C         -12.7404   -2.1449   -1.1367 C.1     1  LIG1        0.0992
@<TRIPOS>BOND
     1    37    36    1
     2    50    51    3
     3    13    14    3
     4    28    25    1
     5    51    45    1
     6    46    44    1
     7    36    31    1
     8    36    38    1
     9    35    30    1
    10    14     4    1
    11    30    31   ar
    12    30    29   ar
    13    31    32   ar
    14    44    45   ar
    15    44    41   ar
    16    45    42   ar
    17     7     3    1
    18    20    19    1
    19     4     3   ar
    20     4     5   ar
    21    25    27    1
    22    25    26    1
    23    25    24    1
    24    29    18    1
    25    29    33   ar
    26     3     2   ar
    27    32    41    1
    28    32    33   ar
    29    19    18   ar
    30    19    15   ar
    31    41    39   ar
    32    42    47    1
    33    42    40   ar
    34    11     9    1
    35    18    17   ar
    36    33    34    1
    37     5    15    1
    38     5     6   ar
    39    15    16   ar
    40     2     8    1
    41     2     1   ar
    42    17    16   ar
    43    17    24    1
    44     6     1   ar
    45     1     9    1
    46    39    40   ar
    47    39    49    1
    48    40    43    1
    49    16    21    1
    50     9    10    1
    51     9    12    1
    52    21    22    3
    53    49    48    3
    54    22    23    1
