@<TRIPOS>MOLECULE
mol_data/opt/m06hf/geoms/mol2/6id6id-4id6id.out
 55 58 0 0 0
SMALL
GASTEIGER

@<TRIPOS>ATOM
      1 C          -4.1239   -2.0456    0.6760 C.ar    1  LIG1        0.0390
      2 C          -3.1186   -2.3306   -0.2535 C.ar    1  LIG1       -0.0394
      3 C          -2.8059   -1.3838   -1.2148 C.ar    1  LIG1       -0.0406
      4 C          -3.4937   -0.1709   -1.2049 C.ar    1  LIG1        0.0777
      5 C          -4.4624    0.0534   -0.2160 C.ar    1  LIG1        0.0903
      6 N          -4.7713   -0.8780    0.6798 N.ar    1  LIG1       -0.2505
      7 H          -2.0564   -1.5714   -1.9721 H       1  LIG1        0.0632
      8 H          -2.6089   -3.2835   -0.2271 H       1  LIG1        0.0636
      9 C          -4.5435   -3.0409    1.7344 C.3     1  LIG1       -0.0223
     10 H          -3.9668   -3.9608    1.6589 H       1  LIG1        0.0292
     11 H          -5.6039   -3.2620    1.6134 H       1  LIG1        0.0292
     12 H          -4.3975   -2.5952    2.7184 H       1  LIG1        0.0292
     13 N          -3.0225    1.5812   -3.0570 N.1     1  LIG1       -0.1908
     14 C          -3.2374    0.8137   -2.2314 C.1     1  LIG1        0.1013
     15 C          -4.6896    2.5986   -0.0591 C.ar    1  LIG1        0.0482
     16 C          -5.2576    1.3171   -0.1526 C.ar    1  LIG1        0.0239
     17 C          -6.6426    1.2024   -0.1314 C.ar    1  LIG1       -0.0313
     18 C          -7.4196    2.3544   -0.0942 C.ar    1  LIG1        0.0783
     19 C          -6.7765    3.6020   -0.0665 C.ar    1  LIG1        0.0889
     20 N          -5.4540    3.6927   -0.0238 N.ar    1  LIG1       -0.2499
     21 H          -7.1074    0.2248   -0.1386 H       1  LIG1        0.0638
     22 C          -3.2030    2.8575    0.0554 C.3     1  LIG1       -0.0217
     23 H          -3.0571    3.6154    0.8242 H       1  LIG1        0.0293
     24 H          -2.8316    3.2439   -0.8947 H       1  LIG1        0.0293
     25 H          -2.6546    1.9544    0.3183 H       1  LIG1        0.0293
     26 N         -10.0031    2.1329   -0.0328 N.1     1  LIG1       -0.1908
     27 C          -8.8614    2.2460   -0.0569 C.1     1  LIG1        0.1013
     28 C          -7.3153    5.8639    0.9073 C.ar    1  LIG1       -0.0406
     29 C          -8.0693    7.0368    0.8570 C.ar    1  LIG1       -0.0492
     30 C          -7.5498    4.8821   -0.0685 C.ar    1  LIG1        0.0058
     31 C          -9.0290    7.2623   -0.1280 C.ar    1  LIG1        0.0015
     32 H          -7.9206    7.7954    1.6164 H       1  LIG1        0.0627
     33 C          -8.4991    5.0885   -1.0651 C.ar    1  LIG1       -0.0343
     34 C          -9.2286    6.2749   -1.0986 C.ar    1  LIG1        0.0601
     35 H          -8.6705    4.3394   -1.8279 H       1  LIG1        0.0637
     36 C          -6.2901    5.6741    2.0096 C.3     1  LIG1       -0.0391
     37 H          -6.4278    6.4342    2.7769 H       1  LIG1        0.0278
     38 H          -5.2853    5.7474    1.5941 H       1  LIG1        0.0278
     39 H          -6.3959    4.6870    2.4618 H       1  LIG1        0.0278
     40 N         -10.9630    6.6318   -2.9974 N.1     1  LIG1       -0.1908
     41 C         -10.1937    6.4807   -2.1593 C.1     1  LIG1        0.0998
     42 C         -11.1931    8.5644    0.1033 C.ar    1  LIG1        0.0460
     43 C          -9.8057    8.5381   -0.1385 C.ar    1  LIG1        0.0056
     44 C          -9.1410    9.7373   -0.3616 C.ar    1  LIG1       -0.0334
     45 C          -9.8770   10.9197   -0.3580 C.ar    1  LIG1        0.0704
     46 C         -11.2512   10.8524   -0.1271 C.ar    1  LIG1        0.0452
     47 N         -11.8799    9.7087    0.1030 N.ar    1  LIG1       -0.2583
     48 H          -8.0742    9.7524   -0.5455 H       1  LIG1        0.0637
     49 H         -11.8489   11.7557   -0.1224 H       1  LIG1        0.0843
     50 C         -11.9924    7.3116    0.3873 C.3     1  LIG1       -0.0218
     51 H         -11.3886    6.5654    0.9028 H       1  LIG1        0.0293
     52 H         -12.3481    6.8897   -0.5550 H       1  LIG1        0.0293
     53 H         -12.8503    7.5921    0.9943 H       1  LIG1        0.0293
     54 N          -8.7357   13.2148   -0.7514 N.1     1  LIG1       -0.1908
     55 C          -9.2397   12.1982   -0.5813 C.1     1  LIG1        0.1007
@<TRIPOS>BOND
     1    13    14    3
     2    40    41    3
     3    14     4    1
     4    41    34    1
     5     7     3    1
     6    35    33    1
     7     3     4   ar
     8     3     2   ar
     9     4     5   ar
    10    34    33   ar
    11    34    31   ar
    12    33    30   ar
    13    24    22    1
    14    54    55    3
    15    55    45    1
    16    52    50    1
    17    48    44    1
    18    44    45   ar
    19    44    43   ar
    20    45    46   ar
    21     2     8    1
    22     2     1   ar
    23     5    16    1
    24     5     6   ar
    25    16    17   ar
    26    16    15   ar
    27    21    17    1
    28    43    31    1
    29    43    42   ar
    30    17    18   ar
    31    31    29   ar
    32    46    49    1
    33    46    47   ar
    34    18    19   ar
    35    18    27    1
    36    30    19    1
    37    30    28   ar
    38    19    20   ar
    39    15    20   ar
    40    15    22    1
    41    27    26    3
    42    22    25    1
    43    22    23    1
    44    47    42   ar
    45    42    50    1
    46    50    51    1
    47    50    53    1
    48     1     6   ar
    49     1     9    1
    50    29    28   ar
    51    29    32    1
    52    28    36    1
    53    38    36    1
    54    11     9    1
    55    10     9    1
    56     9    12    1
    57    36    39    1
    58    36    37    1
