@<TRIPOS>MOLECULE
mol_data/opt/m06hf/geoms/mol2/6id6df-4if-4fd.out
 52 55 0 0 0
SMALL
GASTEIGER

@<TRIPOS>ATOM
      1 C          -4.3177   -2.1912   -0.1998 C.ar    1  LIG1        0.0390
      2 C          -2.9448   -2.2042    0.0647 C.ar    1  LIG1       -0.0394
      3 C          -2.2968   -1.0038    0.3058 C.ar    1  LIG1       -0.0406
      4 C          -3.0390    0.1774    0.2831 C.ar    1  LIG1        0.0778
      5 C          -4.4096    0.1030   -0.0033 C.ar    1  LIG1        0.0914
      6 N          -5.0105   -1.0535   -0.2456 N.ar    1  LIG1       -0.2505
      7 H          -1.2389   -0.9672    0.5285 H       1  LIG1        0.0632
      8 H          -2.4051   -3.1403    0.0900 H       1  LIG1        0.0636
      9 C          -5.1149   -3.4520   -0.4417 C.3     1  LIG1       -0.0223
     10 H          -4.5210   -4.3403   -0.2354 H       1  LIG1        0.0292
     11 H          -5.4520   -3.4699   -1.4787 H       1  LIG1        0.0292
     12 H          -5.9920   -3.4280    0.2054 H       1  LIG1        0.0292
     13 N          -1.8549    2.4186    0.8320 N.1     1  LIG1       -0.1908
     14 C          -2.3918    1.4337    0.5898 C.1     1  LIG1        0.1013
     15 C          -6.5421    1.2761    0.6119 C.ar    1  LIG1        0.1501
     16 C          -5.2928    1.3056   -0.0237 C.ar    1  LIG1        0.0409
     17 C          -4.9371    2.4688   -0.6948 C.ar    1  LIG1       -0.0061
     18 C          -5.8215    3.5405   -0.6974 C.ar    1  LIG1        0.1434
     19 C          -7.0317    3.4292    0.0105 C.ar    1  LIG1        0.1141
     20 N          -7.3786    2.3075    0.6276 N.ar    1  LIG1       -0.2320
     21 H          -4.0041    2.5567   -1.2361 H       1  LIG1        0.0662
     22 N          -7.3543   -0.8119    1.9424 N.1     1  LIG1       -0.1893
     23 C          -6.9903    0.0959    1.3441 C.1     1  LIG1        0.1198
     24 O          -5.4968    4.6450   -1.3961 O.3     1  LIG1       -0.5046
     25 H          -6.2369    5.2705   -1.3899 H       1  LIG1        0.2922
     26 C          -7.6123    5.8182    0.5740 C.ar    1  LIG1       -0.0404
     27 C          -8.5363    6.8604    0.4958 C.ar    1  LIG1       -0.0469
     28 C          -7.9850    4.5818    0.0240 C.ar    1  LIG1        0.0104
     29 C          -9.7970    6.7087   -0.0795 C.ar    1  LIG1        0.0274
     30 H          -8.2749    7.8279    0.9058 H       1  LIG1        0.0628
     31 C          -9.2482    4.3977   -0.5341 C.ar    1  LIG1       -0.0100
     32 C         -10.1561    5.4494   -0.5802 C.ar    1  LIG1        0.1253
     33 H          -9.5163    3.4222   -0.9247 H       1  LIG1        0.0661
     34 C          -6.2899    6.0116    1.3025 C.3     1  LIG1       -0.0391
     35 H          -6.2964    6.9701    1.8193 H       1  LIG1        0.0278
     36 H          -5.4397    5.9933    0.6182 H       1  LIG1        0.0278
     37 H          -6.1518    5.2193    2.0394 H       1  LIG1        0.0278
     38 O         -11.3975    5.3039   -1.1146 O.3     1  LIG1       -0.5061
     39 H         -11.5306    4.4046   -1.4334 H       1  LIG1        0.2922
     40 C         -10.3399    9.1077   -0.6093 C.ar    1  LIG1        0.1247
     41 C         -11.2281   10.1838   -0.6568 C.ar    1  LIG1       -0.0184
     42 C         -10.7541    7.8517   -0.1388 C.ar    1  LIG1        0.0283
     43 C         -12.5396   10.0231   -0.2410 C.ar    1  LIG1       -0.0409
     44 H         -10.8870   11.1450   -1.0222 H       1  LIG1        0.0655
     45 C         -12.0762    7.7025    0.2723 C.ar    1  LIG1       -0.0330
     46 C         -12.9625    8.7780    0.2248 C.ar    1  LIG1        0.0526
     47 H         -12.4171    6.7396    0.6255 H       1  LIG1        0.0638
     48 H         -13.2341   10.8513   -0.2752 H       1  LIG1        0.0631
     49 O          -9.0530    9.2390   -1.0170 O.3     1  LIG1       -0.5062
     50 H          -8.9004   10.1141   -1.3894 H       1  LIG1        0.2922
     51 N         -15.4187    8.4790    1.0089 N.1     1  LIG1       -0.1909
     52 C         -14.3319    8.6051    0.6621 C.1     1  LIG1        0.0992
@<TRIPOS>BOND
     1    11     9    1
     2    39    38    1
     3    24    25    1
     4    24    18    1
     5    50    49    1
     6    21    17    1
     7    38    32    1
     8    44    41    1
     9    49    40    1
    10    33    31    1
    11    18    17   ar
    12    18    19   ar
    13    17    16   ar
    14    41    40   ar
    15    41    43   ar
    16    40    42   ar
    17    32    31   ar
    18    32    29   ar
    19    31    28   ar
    20     9    10    1
    21     9     1    1
    22     9    12    1
    23    48    43    1
    24     6     1   ar
    25     6     5   ar
    26    43    46   ar
    27     1     2   ar
    28    42    29    1
    29    42    45   ar
    30    29    27   ar
    31    16     5    1
    32    16    15   ar
    33     5     4   ar
    34    19    28    1
    35    19    20   ar
    36    28    26   ar
    37     2     8    1
    38     2     3   ar
    39    46    45   ar
    40    46    52    1
    41    45    47    1
    42     4     3   ar
    43     4    14    1
    44     3     7    1
    45    27    26   ar
    46    27    30    1
    47    26    34    1
    48    14    13    3
    49    15    20   ar
    50    15    23    1
    51    36    34    1
    52    52    51    3
    53    34    35    1
    54    34    37    1
    55    23    22    3
