@<TRIPOS>MOLECULE
mol_data/opt/m06hf/geoms/mol2/6id6id-.out
 28 29 0 0 0
SMALL
GASTEIGER

@<TRIPOS>ATOM
      1 C          -4.4356   -2.0177    0.3971 C.ar    1  LIG1        0.0390
      2 C          -3.1475   -2.1230   -0.1359 C.ar    1  LIG1       -0.0394
      3 C          -2.5631   -1.0011   -0.7005 C.ar    1  LIG1       -0.0406
      4 C          -3.2765    0.1968   -0.6973 C.ar    1  LIG1        0.0777
      5 C          -4.5498    0.2296   -0.1093 C.ar    1  LIG1        0.0903
      6 N          -5.1070   -0.8639    0.4012 N.ar    1  LIG1       -0.2505
      7 H          -1.5802   -1.0403   -1.1507 H       1  LIG1        0.0632
      8 H          -2.6278   -3.0704   -0.1197 H       1  LIG1        0.0636
      9 C          -5.1519   -3.2031    1.0049 C.3     1  LIG1       -0.0223
     10 H          -4.5557   -4.1092    0.9192 H       1  LIG1        0.0292
     11 H          -6.1053   -3.3408    0.4951 H       1  LIG1        0.0292
     12 H          -5.3546   -2.9957    2.0559 H       1  LIG1        0.0292
     13 N          -2.2526    2.2814   -1.8506 N.1     1  LIG1       -0.1908
     14 C          -2.7176    1.3670   -1.3358 C.1     1  LIG1        0.1013
     15 C          -4.9636    2.6866    0.4659 C.ar    1  LIG1        0.0475
     16 C          -5.3869    1.4673   -0.0876 C.ar    1  LIG1        0.0238
     17 C          -6.6738    1.3757   -0.6105 C.ar    1  LIG1       -0.0319
     18 C          -7.4722    2.5116   -0.6209 C.ar    1  LIG1        0.0705
     19 C          -6.9567    3.6968   -0.0882 C.ar    1  LIG1        0.0452
     20 N          -5.7508    3.7683    0.4485 N.ar    1  LIG1       -0.2582
     21 H          -7.0376    0.4338   -0.9990 H       1  LIG1        0.0638
     22 H          -7.5532    4.6010   -0.0899 H       1  LIG1        0.0843
     23 C          -3.6351    2.8814    1.1646 C.3     1  LIG1       -0.0217
     24 H          -3.8243    3.4440    2.0775 H       1  LIG1        0.0293
     25 H          -2.9741    3.4664    0.5239 H       1  LIG1        0.0293
     26 H          -3.1594    1.9323    1.4061 H       1  LIG1        0.0293
     27 N          -9.8719    2.4613   -1.6028 N.1     1  LIG1       -0.1908
     28 C          -8.8105    2.4812   -1.1673 C.1     1  LIG1        0.1007
@<TRIPOS>BOND
     1    13    14    3
     2    27    28    3
     3    14     4    1
     4    28    18    1
     5     7     3    1
     6    21    17    1
     7     3     4   ar
     8     3     2   ar
     9     4     5   ar
    10    18    17   ar
    11    18    19   ar
    12    17    16   ar
    13     2     8    1
    14     2     1   ar
    15     5    16    1
    16     5     6   ar
    17    22    19    1
    18    19    20   ar
    19    16    15   ar
    20     1     6   ar
    21     1     9    1
    22    20    15   ar
    23    15    23    1
    24    11     9    1
    25    25    23    1
    26    10     9    1
    27     9    12    1
    28    23    26    1
    29    23    24    1
