@<TRIPOS>MOLECULE
mol_data/opt/m06hf/geoms/mol2/6id6id6id-6id-.out
 54 57 0 0 0
SMALL
GASTEIGER

@<TRIPOS>ATOM
      1 C          -4.4981   -2.2927   -0.0385 C.ar    1  LIG1        0.0390
      2 C          -3.1001   -2.3257   -0.0496 C.ar    1  LIG1       -0.0394
      3 C          -2.4012   -1.1298   -0.0640 C.ar    1  LIG1       -0.0406
      4 C          -3.1211    0.0647   -0.0765 C.ar    1  LIG1        0.0777
      5 C          -4.5232    0.0122   -0.0812 C.ar    1  LIG1        0.0903
      6 N          -5.1764   -1.1439   -0.0556 N.ar    1  LIG1       -0.2505
      7 H          -1.3197   -1.1054   -0.0586 H       1  LIG1        0.0632
      8 H          -2.5793   -3.2726   -0.0401 H       1  LIG1        0.0636
      9 C          -5.3326   -3.5537   -0.0107 C.3     1  LIG1       -0.0223
     10 H          -4.7044   -4.4419    0.0179 H       1  LIG1        0.0292
     11 H          -5.9645   -3.5801   -0.8983 H       1  LIG1        0.0292
     12 H          -5.9772   -3.5327    0.8684 H       1  LIG1        0.0292
     13 N          -1.8583    2.3301   -0.0465 N.1     1  LIG1       -0.1908
     14 C          -2.4229    1.3312   -0.0582 C.1     1  LIG1        0.1013
     15 C          -6.3974    1.4619    0.7987 C.ar    1  LIG1        0.0482
     16 C          -5.3533    1.2536   -0.1238 C.ar    1  LIG1        0.0239
     17 C          -5.1343    2.2066   -1.1068 C.ar    1  LIG1       -0.0313
     18 C          -5.9414    3.3431   -1.1400 C.ar    1  LIG1        0.0784
     19 C          -6.9282    3.4993   -0.1606 C.ar    1  LIG1        0.0904
     20 N          -7.1439    2.5640    0.7617 N.ar    1  LIG1       -0.2499
     21 H          -4.3662    2.0719   -1.8581 H       1  LIG1        0.0638
     22 C          -6.7292    0.4674    1.8897 C.3     1  LIG1       -0.0217
     23 H          -5.8248    0.1728    2.4241 H       1  LIG1        0.0293
     24 H          -7.1668   -0.4272    1.4472 H       1  LIG1        0.0293
     25 H          -7.4322    0.9401    2.5704 H       1  LIG1        0.0293
     26 N          -5.6689    5.0463   -3.0752 N.1     1  LIG1       -0.1908
     27 C          -5.7907    4.3021   -2.2102 C.1     1  LIG1        0.1013
     28 C          -7.3976    6.0134   -0.0941 C.ar    1  LIG1        0.0482
     29 C          -7.8408    4.6802   -0.1215 C.ar    1  LIG1        0.0239
     30 C          -9.2067    4.4325   -0.0481 C.ar    1  LIG1       -0.0313
     31 C         -10.0916    5.5040   -0.0255 C.ar    1  LIG1        0.0784
     32 C          -9.5732    6.8086   -0.0721 C.ar    1  LIG1        0.0904
     33 N          -8.2655    7.0277   -0.0821 N.ar    1  LIG1       -0.2499
     34 H          -9.5723    3.4150   -0.0005 H       1  LIG1        0.0638
     35 C          -5.9422    6.4238   -0.0250 C.3     1  LIG1       -0.0217
     36 H          -5.8644    7.2327    0.7005 H       1  LIG1        0.0293
     37 H          -5.6252    6.7941   -1.0005 H       1  LIG1        0.0293
     38 H          -5.3004    5.5966    0.2741 H       1  LIG1        0.0293
     39 N         -12.6368    5.0405    0.1543 N.1     1  LIG1       -0.1908
     40 C         -11.5128    5.2574    0.0768 C.1     1  LIG1        0.1013
     41 C         -10.2492    9.0908    0.7749 C.ar    1  LIG1        0.0475
     42 C         -10.4613    8.0085   -0.1019 C.ar    1  LIG1        0.0238
     43 C         -11.5016    8.0785   -1.0192 C.ar    1  LIG1       -0.0319
     44 C         -12.2934    9.2243   -1.0423 C.ar    1  LIG1        0.0705
     45 C         -12.0135   10.2498   -0.1412 C.ar    1  LIG1        0.0452
     46 N         -11.0237   10.1758    0.7390 N.ar    1  LIG1       -0.2582
     47 H         -11.6946    7.2710   -1.7143 H       1  LIG1        0.0638
     48 H         -12.6120   11.1526   -0.1366 H       1  LIG1        0.0843
     49 C          -9.1500    9.0966    1.8156 C.3     1  LIG1       -0.0217
     50 H          -9.3547    9.9106    2.5062 H       1  LIG1        0.0293
     51 H          -8.1867    9.2467    1.3282 H       1  LIG1        0.0293
     52 H          -9.1160    8.1453    2.3480 H       1  LIG1        0.0293
     53 N         -14.2450    9.4756   -2.7306 N.1     1  LIG1       -0.1908
     54 C         -13.3828    9.3604   -1.9829 C.1     1  LIG1        0.1007
@<TRIPOS>BOND
     1    26    27    3
     2    53    54    3
     3    27    18    1
     4    54    44    1
     5    21    17    1
     6    47    43    1
     7    18    17   ar
     8    18    19   ar
     9    17    16   ar
    10    44    43   ar
    11    44    45   ar
    12    43    42   ar
    13    37    35    1
    14    11     9    1
    15    19    29    1
    16    19    20   ar
    17    45    48    1
    18    45    46   ar
    19    16     5    1
    20    16    15   ar
    21    29    28   ar
    22    29    30   ar
    23    42    32    1
    24    42    41   ar
    25    28    33   ar
    26    28    35    1
    27    33    32   ar
    28     5     4   ar
    29     5     6   ar
    30     4     3   ar
    31     4    14    1
    32    32    31   ar
    33     3     7    1
    34     3     2   ar
    35    14    13    3
    36     6     1   ar
    37     2     8    1
    38     2     1   ar
    39    30    31   ar
    40    30    34    1
    41     1     9    1
    42    31    40    1
    43    35    38    1
    44    35    36    1
    45     9    10    1
    46     9    12    1
    47    40    39    3
    48    46    41   ar
    49    20    15   ar
    50    41    49    1
    51    15    22    1
    52    51    49    1
    53    24    22    1
    54    49    52    1
    55    49    50    1
    56    22    23    1
    57    22    25    1
