@<TRIPOS>MOLECULE
mol_data/opt/m06hf/geoms/mol2/6id6id-6id-6id-.out
 54 57 0 0 0
SMALL
GASTEIGER

@<TRIPOS>ATOM
      1 C          -3.8285   -1.8763    0.8535 C.ar    1  LIG1        0.0390
      2 C          -3.2708   -2.4143   -0.3106 C.ar    1  LIG1       -0.0394
      3 C          -3.4126   -1.7260   -1.5042 C.ar    1  LIG1       -0.0406
      4 C          -4.0906   -0.5073   -1.4938 C.ar    1  LIG1        0.0777
      5 C          -4.5886   -0.0176   -0.2781 C.ar    1  LIG1        0.0903
      6 N          -4.4710   -0.7060    0.8523 N.ar    1  LIG1       -0.2505
      7 H          -3.0233   -2.1172   -2.4345 H       1  LIG1        0.0632
      8 H          -2.7522   -3.3622   -0.2760 H       1  LIG1        0.0636
      9 C          -3.7305   -2.5794    2.1886 C.3     1  LIG1       -0.0223
     10 H          -3.3009   -3.5731    2.0782 H       1  LIG1        0.0292
     11 H          -4.7260   -2.6541    2.6251 H       1  LIG1        0.0292
     12 H          -3.1072   -1.9849    2.8574 H       1  LIG1        0.0292
     13 N          -4.4839    0.7689   -3.7162 N.1     1  LIG1       -0.1908
     14 C          -4.3127    0.2105   -2.7284 C.1     1  LIG1        0.1013
     15 C          -4.8326    2.5067   -0.6186 C.ar    1  LIG1        0.0482
     16 C          -5.3421    1.2701   -0.1883 C.ar    1  LIG1        0.0239
     17 C          -6.5969    1.2397    0.4086 C.ar    1  LIG1       -0.0313
     18 C          -7.3370    2.4135    0.4950 C.ar    1  LIG1        0.0784
     19 C          -6.7839    3.5975   -0.0172 C.ar    1  LIG1        0.0904
     20 N          -5.5609    3.6219   -0.5288 N.ar    1  LIG1       -0.2499
     21 H          -6.9869    0.3116    0.8058 H       1  LIG1        0.0638
     22 C          -3.4359    2.7022   -1.1669 C.3     1  LIG1       -0.0217
     23 H          -3.0269    3.6050   -0.7148 H       1  LIG1        0.0293
     24 H          -3.4907    2.8428   -2.2471 H       1  LIG1        0.0293
     25 H          -2.7919    1.8533   -0.9441 H       1  LIG1        0.0293
     26 N          -9.6738    2.3736    1.6191 N.1     1  LIG1       -0.1908
     27 C          -8.6390    2.4007    1.1243 C.1     1  LIG1        0.1013
     28 C          -6.9440    6.0688    0.4859 C.ar    1  LIG1        0.0482
     29 C          -7.5337    4.8886   -0.0098 C.ar    1  LIG1        0.0239
     30 C          -8.8230    4.9506   -0.5163 C.ar    1  LIG1       -0.0313
     31 C          -9.4823    6.1794   -0.5397 C.ar    1  LIG1        0.0784
     32 C          -8.8212    7.3111   -0.0496 C.ar    1  LIG1        0.0904
     33 N          -7.5923    7.2302    0.4570 N.ar    1  LIG1       -0.2499
     34 H          -9.3203    4.0681   -0.8984 H       1  LIG1        0.0638
     35 C          -5.5549    6.0991    1.0854 C.3     1  LIG1       -0.0217
     36 H          -5.4469    7.0357    1.6270 H       1  LIG1        0.0293
     37 H          -4.8140    6.0378    0.2883 H       1  LIG1        0.0293
     38 H          -5.4047    5.2517    1.7551 H       1  LIG1        0.0293
     39 N         -11.8945    6.3149   -1.4823 N.1     1  LIG1       -0.1908
     40 C         -10.8302    6.2613   -1.0569 C.1     1  LIG1        0.1013
     41 C          -9.4998    9.4579    1.0896 C.ar    1  LIG1        0.0475
     42 C          -9.4489    8.6657   -0.0734 C.ar    1  LIG1        0.0238
     43 C          -9.9694    9.1709   -1.2574 C.ar    1  LIG1       -0.0319
     44 C         -10.5126   10.4538   -1.2503 C.ar    1  LIG1        0.0705
     45 C         -10.5177   11.1730   -0.0565 C.ar    1  LIG1        0.0452
     46 N         -10.0295   10.6818    1.0753 N.ar    1  LIG1       -0.2582
     47 H          -9.9483    8.5943   -2.1734 H       1  LIG1        0.0638
     48 H         -10.9325   12.1729   -0.0229 H       1  LIG1        0.0843
     49 C          -8.9735    8.9775    2.4247 C.3     1  LIG1       -0.0217
     50 H          -9.3743    9.6333    3.1934 H       1  LIG1        0.0293
     51 H          -7.8842    9.0216    2.4243 H       1  LIG1        0.0293
     52 H          -9.2722    7.9456    2.6120 H       1  LIG1        0.0293
     53 N         -11.4825   11.5096   -3.4111 N.1     1  LIG1       -0.1908
     54 C         -11.0559   11.0403   -2.4550 C.1     1  LIG1        0.1007
@<TRIPOS>BOND
     1    13    14    3
     2    53    54    3
     3    14     4    1
     4    54    44    1
     5     7     3    1
     6    24    22    1
     7    47    43    1
     8     3     4   ar
     9     3     2   ar
    10     4     5   ar
    11    39    40    3
    12    43    44   ar
    13    43    42   ar
    14    44    45   ar
    15    22    25    1
    16    22    23    1
    17    22    15    1
    18    40    31    1
    19    34    30    1
    20    15    20   ar
    21    15    16   ar
    22    31    30   ar
    23    31    32   ar
    24    20    19   ar
    25    30    29   ar
    26     2     8    1
    27     2     1   ar
    28     5    16    1
    29     5     6   ar
    30    16    17   ar
    31    42    32    1
    32    42    41   ar
    33    45    48    1
    34    45    46   ar
    35    32    33   ar
    36    19    29    1
    37    19    18   ar
    38    29    28   ar
    39    37    35    1
    40    17    18   ar
    41    17    21    1
    42    33    28   ar
    43    28    35    1
    44    18    27    1
    45     6     1   ar
    46     1     9    1
    47    46    41   ar
    48    35    36    1
    49    35    38    1
    50    41    49    1
    51    27    26    3
    52    10     9    1
    53     9    11    1
    54     9    12    1
    55    51    49    1
    56    49    52    1
    57    49    50    1
