@<TRIPOS>MOLECULE
mol_data/opt/m06hf/geoms/mol2/6id6id6id6id-.out
 54 57 0 0 0
SMALL
GASTEIGER

@<TRIPOS>ATOM
      1 C          -4.1005   -2.0362   -0.8715 C.ar    1  LIG1        0.0390
      2 C          -2.9996   -2.2567   -0.0381 C.ar    1  LIG1       -0.0394
      3 C          -2.6673   -1.2954    0.9019 C.ar    1  LIG1       -0.0406
      4 C          -3.4404   -0.1366    0.9756 C.ar    1  LIG1        0.0777
      5 C          -4.5203    0.0158    0.0937 C.ar    1  LIG1        0.0903
      6 N          -4.8299   -0.9221   -0.7951 N.ar    1  LIG1       -0.2505
      7 H          -1.8315   -1.4272    1.5761 H       1  LIG1        0.0632
      8 H          -2.4258   -3.1684   -0.1269 H       1  LIG1        0.0636
      9 C          -4.5393   -3.0443   -1.9098 C.3     1  LIG1       -0.0223
     10 H          -3.8675   -3.9000   -1.9375 H       1  LIG1        0.0292
     11 H          -4.5609   -2.5614   -2.8865 H       1  LIG1        0.0292
     12 H          -5.5490   -3.3811   -1.6719 H       1  LIG1        0.0292
     13 N          -2.8629    1.6715    2.7431 N.1     1  LIG1       -0.1908
     14 C          -3.1295    0.8738    1.9625 C.1     1  LIG1        0.1013
     15 C          -6.7853    1.1296    0.1428 C.ar    1  LIG1        0.0482
     16 C          -5.3801    1.2375    0.0984 C.ar    1  LIG1        0.0239
     17 C          -4.8129    2.5008    0.0381 C.ar    1  LIG1       -0.0313
     18 C          -5.6479    3.6177    0.0032 C.ar    1  LIG1        0.0784
     19 C          -7.0342    3.4264    0.0273 C.ar    1  LIG1        0.0904
     20 N          -7.5636    2.2080    0.1071 N.ar    1  LIG1       -0.2499
     21 H          -3.7388    2.6356    0.0123 H       1  LIG1        0.0638
     22 C          -7.4963   -0.2023    0.2435 C.3     1  LIG1       -0.0217
     23 H          -7.0364   -0.8230    1.0138 H       1  LIG1        0.0293
     24 H          -7.4183   -0.7296   -0.7071 H       1  LIG1        0.0293
     25 H          -8.5382   -0.0083    0.4858 H       1  LIG1        0.0293
     26 N          -4.6062    5.9901   -0.1013 N.1     1  LIG1       -0.1908
     27 C          -5.0725    4.9434   -0.0466 C.1     1  LIG1        0.1013
     28 C          -9.0528    4.6937    0.8727 C.ar    1  LIG1        0.0482
     29 C          -7.9879    4.5732   -0.0418 C.ar    1  LIG1        0.0239
     30 C          -7.8581    5.5272   -1.0402 C.ar    1  LIG1       -0.0313
     31 C          -8.7694    6.5804   -1.0938 C.ar    1  LIG1        0.0784
     32 C          -9.7723    6.6568   -0.1207 C.ar    1  LIG1        0.0904
     33 N          -9.9027    5.7173    0.8135 N.ar    1  LIG1       -0.2499
     34 H          -7.0773    5.4563   -1.7870 H       1  LIG1        0.0638
     35 C          -9.2939    3.6940    1.9826 C.3     1  LIG1       -0.0217
     36 H          -8.3664    3.4862    2.5180 H       1  LIG1        0.0293
     37 H          -9.6573    2.7577    1.5597 H       1  LIG1        0.0293
     38 H         -10.0317    4.1192    2.6578 H       1  LIG1        0.0293
     39 N          -8.6282    8.2760   -3.0501 N.1     1  LIG1       -0.1908
     40 C          -8.6975    7.5360   -2.1755 C.1     1  LIG1        0.1013
     41 C         -10.4654    9.1158   -0.0703 C.ar    1  LIG1        0.0475
     42 C         -10.7904    7.7488   -0.1001 C.ar    1  LIG1        0.0238
     43 C         -12.1297    7.3725   -0.0566 C.ar    1  LIG1       -0.0319
     44 C         -13.1014    8.3642   -0.0471 C.ar    1  LIG1        0.0705
     45 C         -12.6924    9.7015   -0.0641 C.ar    1  LIG1        0.0452
     46 N         -11.4189   10.0547   -0.0598 N.ar    1  LIG1       -0.2582
     47 H         -12.4007    6.3251   -0.0293 H       1  LIG1        0.0638
     48 H         -13.4287   10.4962   -0.0651 H       1  LIG1        0.0843
     49 C          -9.0501    9.6480    0.0030 C.3     1  LIG1       -0.0217
     50 H          -9.0445   10.4619    0.7262 H       1  LIG1        0.0293
     51 H          -8.7641   10.0434   -0.9723 H       1  LIG1        0.0293
     52 H          -8.3391    8.8800    0.3039 H       1  LIG1        0.0293
     53 N         -15.6263    7.7776    0.0196 N.1     1  LIG1       -0.1908
     54 C         -14.5086    8.0344   -0.0112 C.1     1  LIG1        0.1007
@<TRIPOS>BOND
     1    39    40    3
     2    11     9    1
     3    40    31    1
     4    10     9    1
     5     9    12    1
     6     9     1    1
     7    34    30    1
     8    31    30   ar
     9    31    32   ar
    10    30    29   ar
    11    51    49    1
    12     1     6   ar
    13     1     2   ar
    14     6     5   ar
    15    24    22    1
    16     8     2    1
    17    32    42    1
    18    32    33   ar
    19    26    27    3
    20    42    41   ar
    21    42    43   ar
    22    41    46   ar
    23    41    49    1
    24    48    45    1
    25    45    46   ar
    26    45    44   ar
    27    43    44   ar
    28    43    47    1
    29    44    54    1
    30    27    18    1
    31    29    19    1
    32    29    28   ar
    33     2     3   ar
    34    54    53    3
    35    49    52    1
    36    49    50    1
    37    18    19   ar
    38    18    17   ar
    39    21    17    1
    40    19    20   ar
    41    17    16   ar
    42     5    16    1
    43     5     4   ar
    44    16    15   ar
    45    20    15   ar
    46    15    22    1
    47    22    25    1
    48    22    23    1
    49    33    28   ar
    50    28    35    1
    51     3     4   ar
    52     3     7    1
    53     4    14    1
    54    37    35    1
    55    14    13    3
    56    35    36    1
    57    35    38    1
