@<TRIPOS>MOLECULE
mol_data/opt/m06hf/geoms/mol2/6id6id-6id-6id.out
 54 57 0 0 0
SMALL
GASTEIGER

@<TRIPOS>ATOM
      1 C          -4.1819   -2.0515    0.7511 C.ar    1  LIG1        0.0390
      2 C          -3.1597   -2.3611   -0.1516 C.ar    1  LIG1       -0.0394
      3 C          -2.8155   -1.4327   -1.1200 C.ar    1  LIG1       -0.0406
      4 C          -3.4903   -0.2123   -1.1438 C.ar    1  LIG1        0.0777
      5 C          -4.4769    0.0374   -0.1792 C.ar    1  LIG1        0.0903
      6 N          -4.8154   -0.8769    0.7237 N.ar    1  LIG1       -0.2505
      7 H          -2.0526   -1.6399   -1.8584 H       1  LIG1        0.0632
      8 H          -2.6615   -3.3192   -0.0996 H       1  LIG1        0.0636
      9 C          -4.6265   -3.0216    1.8224 C.3     1  LIG1       -0.0223
     10 H          -4.1709   -3.9996    1.6800 H       1  LIG1        0.0292
     11 H          -5.7117   -3.1112    1.7917 H       1  LIG1        0.0292
     12 H          -4.3432   -2.6270    2.7989 H       1  LIG1        0.0292
     13 N          -2.9761    1.4986   -3.0233 N.1     1  LIG1       -0.1908
     14 C          -3.2076    0.7494   -2.1850 C.1     1  LIG1        0.1013
     15 C          -4.6783    2.5879   -0.0754 C.ar    1  LIG1        0.0482
     16 C          -5.2591    1.3104   -0.1476 C.ar    1  LIG1        0.0239
     17 C          -6.6453    1.2096   -0.1287 C.ar    1  LIG1       -0.0313
     18 C          -7.4116    2.3689   -0.1120 C.ar    1  LIG1        0.0784
     19 C          -6.7551    3.6107   -0.1078 C.ar    1  LIG1        0.0904
     20 N          -5.4329    3.6897   -0.0675 N.ar    1  LIG1       -0.2499
     21 H          -7.1190    0.2365   -0.1181 H       1  LIG1        0.0638
     22 C          -3.1906    2.8379    0.0461 C.3     1  LIG1       -0.0217
     23 H          -3.0473    3.6120    0.7992 H       1  LIG1        0.0293
     24 H          -2.8077    3.1996   -0.9088 H       1  LIG1        0.0293
     25 H          -2.6513    1.9370    0.3344 H       1  LIG1        0.0293
     26 N          -9.9979    2.1921   -0.0329 N.1     1  LIG1       -0.1908
     27 C          -8.8543    2.2789   -0.0664 C.1     1  LIG1        0.1013
     28 C          -7.2337    5.9345    0.7724 C.ar    1  LIG1        0.0482
     29 C          -7.5147    4.8957   -0.1369 C.ar    1  LIG1        0.0239
     30 C          -8.4995    5.0968   -1.0928 C.ar    1  LIG1       -0.0313
     31 C          -9.1917    6.3062   -1.1079 C.ar    1  LIG1        0.0784
     32 C          -8.8916    7.2691   -0.1376 C.ar    1  LIG1        0.0904
     33 N          -7.9213    7.0749    0.7530 N.ar    1  LIG1       -0.2499
     34 H          -8.7225    4.3419   -1.8365 H       1  LIG1        0.0638
     35 C          -6.1593    5.8259    1.8324 C.3     1  LIG1       -0.0217
     36 H          -6.2869    6.6574    2.5205 H       1  LIG1        0.0293
     37 H          -5.1768    5.8656    1.3629 H       1  LIG1        0.0293
     38 H          -6.2416    4.8773    2.3648 H       1  LIG1        0.0293
     39 N         -10.9170    6.7595   -2.9893 N.1     1  LIG1       -0.1908
     40 C         -10.1611    6.5664   -2.1476 C.1     1  LIG1        0.1013
     41 C         -10.9860    8.7210    0.0249 C.ar    1  LIG1        0.0475
     42 C          -9.5906    8.5868   -0.0720 C.ar    1  LIG1        0.0238
     43 C          -8.7994    9.7317   -0.0544 C.ar    1  LIG1       -0.0319
     44 C          -9.4226   10.9717   -0.0035 C.ar    1  LIG1        0.0705
     45 C         -10.8193   11.0171    0.0468 C.ar    1  LIG1        0.0452
     46 N         -11.5649    9.9263    0.0755 N.ar    1  LIG1       -0.2582
     47 H          -7.7206    9.6495   -0.0798 H       1  LIG1        0.0638
     48 H         -11.3324   11.9707    0.0793 H       1  LIG1        0.0843
     49 C         -11.9436    7.5530    0.1293 C.3     1  LIG1       -0.0217
     50 H         -11.4345    6.6296    0.4013 H       1  LIG1        0.0293
     51 H         -12.4506    7.4180   -0.8270 H       1  LIG1        0.0293
     52 H         -12.6845    7.8048    0.8862 H       1  LIG1        0.0293
     53 N          -8.0516   13.1724    0.0140 N.1     1  LIG1       -0.1908
     54 C          -8.6554   12.1971    0.0055 C.1     1  LIG1        0.1007
@<TRIPOS>BOND
     1    13    14    3
     2    39    40    3
     3    14     4    1
     4    40    31    1
     5     7     3    1
     6    34    30    1
     7     4     3   ar
     8     4     5   ar
     9     3     2   ar
    10    31    30   ar
    11    31    32   ar
    12    30    29   ar
    13    24    22    1
    14    51    49    1
    15     5    16    1
    16     5     6   ar
    17     2     8    1
    18     2     1   ar
    19    16    17   ar
    20    16    15   ar
    21    32    42    1
    22    32    33   ar
    23    29    19    1
    24    29    28   ar
    25    17    21    1
    26    17    18   ar
    27    18    19   ar
    28    18    27    1
    29    19    20   ar
    30    47    43    1
    31    15    20   ar
    32    15    22    1
    33    42    43   ar
    34    42    41   ar
    35    27    26    3
    36    43    44   ar
    37    44    54    1
    38    44    45   ar
    39    54    53    3
    40    41    46   ar
    41    41    49    1
    42    22    25    1
    43    22    23    1
    44    45    46   ar
    45    45    48    1
    46    49    50    1
    47    49    52    1
    48     6     1   ar
    49     1     9    1
    50    33    28   ar
    51    28    35    1
    52    37    35    1
    53    10     9    1
    54    11     9    1
    55     9    12    1
    56    35    38    1
    57    35    36    1
