@<TRIPOS>MOLECULE
mol_data/opt/m06hf/geoms/mol2/6id6id-6id.out
 41 43 0 0 0
SMALL
GASTEIGER

@<TRIPOS>ATOM
      1 C          -4.4062   -2.1211    0.2474 C.ar    1  LIG1        0.0390
      2 C          -3.0525   -2.1800   -0.0984 C.ar    1  LIG1       -0.0394
      3 C          -2.4050   -1.0156   -0.4776 C.ar    1  LIG1       -0.0406
      4 C          -3.1265    0.1777   -0.4787 C.ar    1  LIG1        0.0777
      5 C          -4.4710    0.1598   -0.0799 C.ar    1  LIG1        0.0903
      6 N          -5.0850   -0.9715    0.2502 N.ar    1  LIG1       -0.2505
      7 H          -1.3672   -1.0168   -0.7825 H       1  LIG1        0.0632
      8 H          -2.5294   -3.1259   -0.0851 H       1  LIG1        0.0636
      9 C          -5.1844   -3.3539    0.6493 C.3     1  LIG1       -0.0223
     10 H          -4.5941   -4.2558    0.5004 H       1  LIG1        0.0292
     11 H          -6.0968   -3.4072    0.0563 H       1  LIG1        0.0292
     12 H          -5.4644   -3.2711    1.7001 H       1  LIG1        0.0292
     13 N          -1.9986    2.3636   -1.2995 N.1     1  LIG1       -0.1908
     14 C          -2.5040    1.4005   -0.9329 C.1     1  LIG1        0.1013
     15 C          -4.9902    2.5603    0.6401 C.ar    1  LIG1        0.0482
     16 C          -5.3147    1.3934   -0.0718 C.ar    1  LIG1        0.0239
     17 C          -6.5018    1.3631   -0.7948 C.ar    1  LIG1       -0.0313
     18 C          -7.3072    2.4953   -0.8248 C.ar    1  LIG1        0.0784
     19 C          -6.9091    3.6270   -0.0955 C.ar    1  LIG1        0.0904
     20 N          -5.7828    3.6357    0.6044 N.ar    1  LIG1       -0.2499
     21 H          -6.7862    0.4706   -1.3367 H       1  LIG1        0.0638
     22 C          -3.7747    2.6980    1.5313 C.3     1  LIG1       -0.0217
     23 H          -4.0920    3.1972    2.4454 H       1  LIG1        0.0293
     24 H          -3.0302    3.3184    1.0311 H       1  LIG1        0.0293
     25 H          -3.3376    1.7301    1.7710 H       1  LIG1        0.0293
     26 N          -9.4524    2.4933   -2.2805 N.1     1  LIG1       -0.1908
     27 C          -8.5066    2.5057   -1.6308 C.1     1  LIG1        0.1013
     28 C          -9.0402    4.9820    0.2882 C.ar    1  LIG1        0.0475
     29 C          -7.6939    4.8986   -0.1045 C.ar    1  LIG1        0.0238
     30 C          -7.0277    6.0597   -0.4852 C.ar    1  LIG1       -0.0319
     31 C          -7.7380    7.2531   -0.5191 C.ar    1  LIG1        0.0705
     32 C          -9.0861    7.2407   -0.1499 C.ar    1  LIG1        0.0452
     33 N          -9.7033    6.1430    0.2536 N.ar    1  LIG1       -0.2582
     34 H          -5.9791    6.0266   -0.7503 H       1  LIG1        0.0638
     35 H          -9.6661    8.1553   -0.1738 H       1  LIG1        0.0843
     36 C          -9.8360    3.8090    0.8186 C.3     1  LIG1       -0.0217
     37 H          -9.1921    2.9817    1.1132 H       1  LIG1        0.0293
     38 H         -10.5325    3.4704    0.0505 H       1  LIG1        0.0293
     39 H         -10.4053    4.1586    1.6784 H       1  LIG1        0.0293
     40 N          -6.6150    9.4712   -1.2564 N.1     1  LIG1       -0.1908
     41 C          -7.1088    8.4891   -0.9277 C.1     1  LIG1        0.1007
@<TRIPOS>BOND
     1    26    27    3
     2    27    18    1
     3    21    17    1
     4    13    14    3
     5    40    41    3
     6    14     4    1
     7    41    31    1
     8    18    17   ar
     9    18    19   ar
    10    17    16   ar
    11     7     3    1
    12    34    30    1
    13    31    30   ar
    14    31    32   ar
    15    30    29   ar
    16     4     3   ar
    17     4     5   ar
    18     3     2   ar
    19    35    32    1
    20    32    33   ar
    21    29    19    1
    22    29    28   ar
    23     2     8    1
    24     2     1   ar
    25    19    20   ar
    26     5    16    1
    27     5     6   ar
    28    16    15   ar
    29    38    36    1
    30    11     9    1
    31     1     6   ar
    32     1     9    1
    33    33    28   ar
    34    28    36    1
    35    10     9    1
    36    20    15   ar
    37    15    22    1
    38     9    12    1
    39    36    37    1
    40    36    39    1
    41    24    22    1
    42    22    25    1
    43    22    23    1
