@<TRIPOS>MOLECULE
mol_data/opt/m06hf/geoms/mol2/6id6id6id6id.out
 54 57 0 0 0
SMALL
GASTEIGER

@<TRIPOS>ATOM
      1 C          -3.7095   -1.7065   -1.2332 C.ar    1  LIG1        0.0390
      2 C          -2.9214   -2.1910   -0.1849 C.ar    1  LIG1       -0.0394
      3 C          -2.9696   -1.5497    1.0417 C.ar    1  LIG1       -0.0406
      4 C          -3.7980   -0.4363    1.1822 C.ar    1  LIG1        0.0777
      5 C          -4.5444   -0.0020    0.0767 C.ar    1  LIG1        0.0903
      6 N          -4.4941   -0.6370   -1.0892 N.ar    1  LIG1       -0.2505
      7 H          -2.3887   -1.8970    1.8855 H       1  LIG1        0.0632
      8 H          -2.2922   -3.0573   -0.3334 H       1  LIG1        0.0636
      9 C          -3.7225   -2.3573   -2.5982 C.3     1  LIG1       -0.0223
     10 H          -3.1045   -3.2531   -2.6141 H       1  LIG1        0.0292
     11 H          -3.3520   -1.6445   -3.3352 H       1  LIG1        0.0292
     12 H          -4.7495   -2.6152   -2.8572 H       1  LIG1        0.0292
     13 N          -3.9538    0.7554    3.4804 N.1     1  LIG1       -0.1908
     14 C          -3.8938    0.2326    2.4609 C.1     1  LIG1        0.1013
     15 C          -6.7671    1.1358   -0.2974 C.ar    1  LIG1        0.0482
     16 C          -5.4308    1.1986    0.1443 C.ar    1  LIG1        0.0239
     17 C          -4.9448    2.4058    0.6227 C.ar    1  LIG1       -0.0313
     18 C          -5.7848    3.5192    0.6295 C.ar    1  LIG1        0.0784
     19 C          -7.0922    3.3813    0.1510 C.ar    1  LIG1        0.0904
     20 N          -7.5528    2.2099   -0.2811 N.ar    1  LIG1       -0.2499
     21 H          -3.9284    2.4992    0.9841 H       1  LIG1        0.0638
     22 C          -7.3980   -0.1408   -0.8088 C.3     1  LIG1       -0.0217
     23 H          -7.1332   -0.9845   -0.1709 H       1  LIG1        0.0293
     24 H          -7.0318   -0.3480   -1.8144 H       1  LIG1        0.0293
     25 H          -8.4758    0.0017   -0.8241 H       1  LIG1        0.0293
     26 N          -4.8995    5.7837    1.5309 N.1     1  LIG1       -0.1908
     27 C          -5.2994    4.7834    1.1367 C.1     1  LIG1        0.1013
     28 C          -9.3330    4.4408    0.6383 C.ar    1  LIG1        0.0482
     29 C          -8.0382    4.5348    0.0906 C.ar    1  LIG1        0.0239
     30 C          -7.6613    5.7179   -0.5261 C.ar    1  LIG1       -0.0313
     31 C          -8.5805    6.7639   -0.6037 C.ar    1  LIG1        0.0784
     32 C          -9.8551    6.5868   -0.0532 C.ar    1  LIG1        0.0904
     33 N         -10.1934    5.4522    0.5560 N.ar    1  LIG1       -0.2499
     34 H          -6.6727    5.8405   -0.9501 H       1  LIG1        0.0638
     35 C          -9.8255    3.2049    1.3589 C.3     1  LIG1       -0.0217
     36 H          -9.0621    2.8248    2.0385 H       1  LIG1        0.0293
     37 H         -10.0526    2.4253    0.6317 H       1  LIG1        0.0293
     38 H         -10.7230    3.4759    1.9096 H       1  LIG1        0.0293
     39 N          -7.8854    8.9746   -1.7677 N.1     1  LIG1       -0.1908
     40 C          -8.1990    8.0045   -1.2415 C.1     1  LIG1        0.1013
     41 C         -11.5958    8.0509    1.0391 C.ar    1  LIG1        0.0475
     42 C         -10.9021    7.6492   -0.1200 C.ar    1  LIG1        0.0238
     43 C         -11.2226    8.2381   -1.3356 C.ar    1  LIG1       -0.0319
     44 C         -12.2313    9.1989   -1.3638 C.ar    1  LIG1        0.0705
     45 C         -12.8697    9.5356   -0.1715 C.ar    1  LIG1        0.0452
     46 N         -12.5529    8.9781    0.9899 N.ar    1  LIG1       -0.2582
     47 H         -10.7157    7.9555   -2.2494 H       1  LIG1        0.0638
     48 H         -13.6576   10.2785   -0.1646 H       1  LIG1        0.0843
     49 C         -11.3008    7.4744    2.4069 C.3     1  LIG1       -0.0217
     50 H         -10.2258    7.4006    2.5741 H       1  LIG1        0.0293
     51 H         -11.7256    6.4730    2.4795 H       1  LIG1        0.0293
     52 H         -11.7556    8.1291    3.1459 H       1  LIG1        0.0293
     53 N         -12.9507   10.3214   -3.5879 N.1     1  LIG1       -0.1908
     54 C         -12.6271    9.8288   -2.6036 C.1     1  LIG1        0.1007
@<TRIPOS>BOND
     1    53    54    3
     2    11     9    1
     3    12     9    1
     4    10     9    1
     5    54    44    1
     6     9     1    1
     7    47    43    1
     8    24    22    1
     9    39    40    3
    10    44    43   ar
    11    44    45   ar
    12    43    42   ar
    13    40    31    1
    14     1     6   ar
    15     1     2   ar
    16     6     5   ar
    17    34    30    1
    18    25    22    1
    19    22    15    1
    20    22    23    1
    21    31    30   ar
    22    31    32   ar
    23    30    29   ar
    24     8     2    1
    25    15    20   ar
    26    15    16   ar
    27    20    19   ar
    28     2     3   ar
    29    45    48    1
    30    45    46   ar
    31    42    32    1
    32    42    41   ar
    33    32    33   ar
    34     5    16    1
    35     5     4   ar
    36    29    19    1
    37    29    28   ar
    38    16    17   ar
    39    19    18   ar
    40    33    28   ar
    41    17    18   ar
    42    17    21    1
    43    18    27    1
    44    37    35    1
    45    28    35    1
    46    46    41   ar
    47    41    49    1
    48     3     4   ar
    49     3     7    1
    50    27    26    3
    51     4    14    1
    52    35    38    1
    53    35    36    1
    54    49    51    1
    55    49    50    1
    56    49    52    1
    57    14    13    3
