@<TRIPOS>MOLECULE
mol_data/opt/m06hf/geoms/mol2/6id6id-6id6id-.out
 54 57 0 0 0
SMALL
GASTEIGER

@<TRIPOS>ATOM
      1 C          -4.3272   -2.1803    0.4270 C.ar    1  LIG1        0.0390
      2 C          -3.0432   -2.2924   -0.1148 C.ar    1  LIG1       -0.0394
      3 C          -2.4637   -1.1807   -0.7039 C.ar    1  LIG1       -0.0406
      4 C          -3.1782    0.0168   -0.7144 C.ar    1  LIG1        0.0777
      5 C          -4.4452    0.0573   -0.1147 C.ar    1  LIG1        0.0903
      6 N          -4.9990   -1.0263    0.4183 N.ar    1  LIG1       -0.2505
      7 H          -1.4849   -1.2267   -1.1625 H       1  LIG1        0.0632
      8 H          -2.5234   -3.2399   -0.0868 H       1  LIG1        0.0636
      9 C          -5.0324   -3.3553    1.0664 C.3     1  LIG1       -0.0223
     10 H          -4.4690   -4.2755    0.9254 H       1  LIG1        0.0292
     11 H          -6.0233   -3.4583    0.6256 H       1  LIG1        0.0292
     12 H          -5.1515   -3.1608    2.1329 H       1  LIG1        0.0292
     13 N          -2.1944    2.0890   -1.9233 N.1     1  LIG1       -0.1908
     14 C          -2.6352    1.1778   -1.3825 C.1     1  LIG1        0.1013
     15 C          -4.8565    2.5229    0.4344 C.ar    1  LIG1        0.0482
     16 C          -5.2816    1.2962   -0.1010 C.ar    1  LIG1        0.0239
     17 C          -6.5654    1.2082   -0.6276 C.ar    1  LIG1       -0.0313
     18 C          -7.3710    2.3404   -0.6445 C.ar    1  LIG1        0.0784
     19 C          -6.8718    3.5313   -0.0943 C.ar    1  LIG1        0.0904
     20 N          -5.6508    3.5978    0.4181 N.ar    1  LIG1       -0.2499
     21 H          -6.9254    0.2705   -1.0309 H       1  LIG1        0.0638
     22 C          -3.5177    2.7347    1.1075 C.3     1  LIG1       -0.0217
     23 H          -3.6916    3.3136    2.0131 H       1  LIG1        0.0293
     24 H          -2.8681    3.3071    0.4439 H       1  LIG1        0.0293
     25 H          -3.0372    1.7907    1.3585 H       1  LIG1        0.0293
     26 N          -9.7043    2.2340   -1.7702 N.1     1  LIG1       -0.1908
     27 C          -8.6751    2.2902   -1.2654 C.1     1  LIG1        0.1013
     28 C          -8.9283    4.9416    0.4763 C.ar    1  LIG1        0.0482
     29 C          -7.6539    4.8045   -0.0970 C.ar    1  LIG1        0.0239
     30 C          -7.0591    5.9203   -0.6756 C.ar    1  LIG1       -0.0313
     31 C          -7.7555    7.1225   -0.7011 C.ar    1  LIG1        0.0784
     32 C          -9.0263    7.1803   -0.1072 C.ar    1  LIG1        0.0904
     33 N          -9.5756    6.1104    0.4521 N.ar    1  LIG1       -0.2499
     34 H          -6.0706    5.8473   -1.1106 H       1  LIG1        0.0638
     35 C          -9.6527    3.8287    1.2023 C.3     1  LIG1       -0.0217
     36 H          -8.9837    3.0071    1.4531 H       1  LIG1        0.0293
     37 H         -10.4632    3.4566    0.5740 H       1  LIG1        0.0293
     38 H         -10.0789    4.2496    2.1114 H       1  LIG1        0.0293
     39 N          -6.7246    9.1702   -1.9119 N.1     1  LIG1       -0.1908
     40 C          -7.1879    8.2709   -1.3704 C.1     1  LIG1        0.1013
     41 C          -9.4213    9.6531    0.4042 C.ar    1  LIG1        0.0475
     42 C          -9.8568    8.4225   -0.1139 C.ar    1  LIG1        0.0238
     43 C         -11.1478    8.3243   -0.6249 C.ar    1  LIG1       -0.0319
     44 C         -11.9383    9.4657   -0.6605 C.ar    1  LIG1        0.0705
     45 C         -11.4102   10.6616   -0.1656 C.ar    1  LIG1        0.0452
     46 N         -10.2004   10.7397    0.3614 N.ar    1  LIG1       -0.2582
     47 H         -11.5210    7.3746   -0.9860 H       1  LIG1        0.0638
     48 H         -12.0001   11.5699   -0.1909 H       1  LIG1        0.0843
     49 C          -8.0878    9.8567    1.0910 C.3     1  LIG1       -0.0217
     50 H          -8.2700   10.4364    1.9947 H       1  LIG1        0.0293
     51 H          -7.4294   10.4282    0.4356 H       1  LIG1        0.0293
     52 H          -7.6126    8.9118    1.3489 H       1  LIG1        0.0293
     53 N         -14.3459    9.4120   -1.6223 N.1     1  LIG1       -0.1908
     54 C         -13.2809    9.4321   -1.1964 C.1     1  LIG1        0.1007
@<TRIPOS>BOND
     1    13    14    3
     2    39    40    3
     3    26    27    3
     4    53    54    3
     5    14     4    1
     6    40    31    1
     7    27    18    1
     8    54    44    1
     9     7     3    1
    10    34    30    1
    11    21    17    1
    12    47    43    1
    13     4     3   ar
    14     4     5   ar
    15     3     2   ar
    16    31    30   ar
    17    31    32   ar
    18    30    29   ar
    19    44    43   ar
    20    44    45   ar
    21    18    17   ar
    22    18    19   ar
    23    17    16   ar
    24    43    42   ar
    25    48    45    1
    26    45    46   ar
    27     2     8    1
    28     2     1   ar
    29     5    16    1
    30     5     6   ar
    31    42    32    1
    32    42    41   ar
    33    32    33   ar
    34    16    15   ar
    35    29    19    1
    36    29    28   ar
    37    19    20   ar
    38    46    41   ar
    39    41    49    1
    40    20    15   ar
    41     6     1   ar
    42     1     9    1
    43    15    22    1
    44    51    49    1
    45    24    22    1
    46    33    28   ar
    47    28    35    1
    48    37    35    1
    49    11     9    1
    50    10     9    1
    51     9    12    1
    52    49    52    1
    53    49    50    1
    54    22    25    1
    55    22    23    1
    56    35    36    1
    57    35    38    1
