@<TRIPOS>MOLECULE
mol_data/opt/m06hf/geoms/mol2/6id6id6id-6id.out
 54 57 0 0 0
SMALL
GASTEIGER

@<TRIPOS>ATOM
      1 C          -4.3165   -2.2143   -0.4451 C.ar    1  LIG1        0.0390
      2 C          -3.0137   -2.2666    0.0605 C.ar    1  LIG1       -0.0394
      3 C          -2.4492   -1.1137    0.5804 C.ar    1  LIG1       -0.0406
      4 C          -3.2020    0.0604    0.5718 C.ar    1  LIG1        0.0777
      5 C          -4.4961    0.0341    0.0317 C.ar    1  LIG1        0.0903
      6 N          -5.0250   -1.0836   -0.4534 N.ar    1  LIG1       -0.2505
      7 H          -1.4499   -1.1085    0.9945 H       1  LIG1        0.0632
      8 H          -2.4641   -3.1975    0.0489 H       1  LIG1        0.0636
      9 C          -5.0069   -3.4333   -1.0148 C.3     1  LIG1       -0.0223
     10 H          -4.3620   -4.3087   -0.9677 H       1  LIG1        0.0292
     11 H          -5.2818   -3.2350   -2.0506 H       1  LIG1        0.0292
     12 H          -5.9199   -3.6208   -0.4487 H       1  LIG1        0.0292
     13 N          -2.2058    2.2293    1.5870 N.1     1  LIG1       -0.1908
     14 C          -2.6539    1.2729    1.1387 C.1     1  LIG1        0.1013
     15 C          -6.6636    1.2650    0.4565 C.ar    1  LIG1        0.0482
     16 C          -5.3407    1.2652   -0.0270 C.ar    1  LIG1        0.0239
     17 C          -4.8392    2.4282   -0.5918 C.ar    1  LIG1       -0.0313
     18 C          -5.6505    3.5606   -0.6430 C.ar    1  LIG1        0.0784
     19 C          -6.9353    3.4956   -0.0934 C.ar    1  LIG1        0.0904
     20 N          -7.4154    2.3637    0.4167 N.ar    1  LIG1       -0.2499
     21 H          -3.8400    2.4653   -1.0077 H       1  LIG1        0.0638
     22 C          -7.3082    0.0371    1.0618 C.3     1  LIG1       -0.0217
     23 H          -6.6534   -0.4029    1.8157 H       1  LIG1        0.0293
     24 H          -7.4770   -0.7078    0.2845 H       1  LIG1        0.0293
     25 H          -8.2491    0.3420    1.5121 H       1  LIG1        0.0293
     26 N          -4.7933    5.6877   -1.8523 N.1     1  LIG1       -0.1908
     27 C          -5.1788    4.7541   -1.3073 C.1     1  LIG1        0.1013
     28 C          -7.5566    5.9173    0.4469 C.ar    1  LIG1        0.0482
     29 C          -7.8703    4.6598   -0.0950 C.ar    1  LIG1        0.0239
     30 C          -9.1362    4.4640   -0.6359 C.ar    1  LIG1       -0.0313
     31 C         -10.0349    5.5232   -0.6610 C.ar    1  LIG1        0.0784
     32 C          -9.6461    6.7520   -0.1043 C.ar    1  LIG1        0.0904
     33 N          -8.4405    6.9197    0.4221 N.ar    1  LIG1       -0.2499
     34 H          -9.4109    3.4990   -1.0420 H       1  LIG1        0.0638
     35 C          -6.2500    6.2406    1.1392 C.3     1  LIG1       -0.0217
     36 H          -6.4849    6.8143    2.0341 H       1  LIG1        0.0293
     37 H          -5.6351    6.8551    0.4801 H       1  LIG1        0.0293
     38 H          -5.7002    5.3408    1.4102 H       1  LIG1        0.0293
     39 N         -12.3400    5.2052   -1.8042 N.1     1  LIG1       -0.1908
     40 C         -11.3242    5.3576   -1.2926 C.1     1  LIG1        0.1013
     41 C         -11.8266    7.9707    0.4349 C.ar    1  LIG1        0.0475
     42 C         -10.5350    7.9529   -0.1165 C.ar    1  LIG1        0.0238
     43 C         -10.0208    9.1226   -0.6687 C.ar    1  LIG1       -0.0319
     44 C         -10.8299   10.2505   -0.7112 C.ar    1  LIG1        0.0705
     45 C         -12.1211   10.1686   -0.1814 C.ar    1  LIG1        0.0452
     46 N         -12.5884    9.0692    0.3845 N.ar    1  LIG1       -0.2582
     47 H          -9.0101    9.1448   -1.0557 H       1  LIG1        0.0638
     48 H         -12.7780   11.0295   -0.2104 H       1  LIG1        0.0843
     49 C         -12.4491    6.8015    1.1677 C.3     1  LIG1       -0.0217
     50 H         -11.7114    6.0457    1.4320 H       1  LIG1        0.0293
     51 H         -13.2212    6.3535    0.5409 H       1  LIG1        0.0293
     52 H         -12.9156    7.1925    2.0706 H       1  LIG1        0.0293
     53 N          -9.9961   12.4760   -1.7485 N.1     1  LIG1       -0.1908
     54 C         -10.3606   11.4901   -1.2891 C.1     1  LIG1        0.1007
@<TRIPOS>BOND
     1    11     9    1
     2    26    27    3
     3    39    40    3
     4    53    54    3
     5    27    18    1
     6    40    31    1
     7    54    44    1
     8    47    43    1
     9    34    30    1
    10     9    10    1
    11     9    12    1
    12     9     1    1
    13    21    17    1
    14    44    43   ar
    15    44    45   ar
    16    43    42   ar
    17    31    30   ar
    18    31    32   ar
    19    18    17   ar
    20    18    19   ar
    21    30    29   ar
    22    17    16   ar
    23     6     1   ar
    24     6     5   ar
    25     1     2   ar
    26    48    45    1
    27    45    46   ar
    28    42    32    1
    29    42    41   ar
    30    32    33   ar
    31    29    19    1
    32    29    28   ar
    33    19    20   ar
    34    16     5    1
    35    16    15   ar
    36     5     4   ar
    37     8     2    1
    38     2     3   ar
    39    24    22    1
    40    46    41   ar
    41    20    15   ar
    42    33    28   ar
    43    41    49    1
    44    28    35    1
    45    15    22    1
    46    37    35    1
    47    51    49    1
    48     4     3   ar
    49     4    14    1
    50     3     7    1
    51    22    25    1
    52    22    23    1
    53    14    13    3
    54    35    38    1
    55    35    36    1
    56    49    50    1
    57    49    52    1
