@<TRIPOS>MOLECULE
mol_data/opt/m06hf/geoms/mol2/6id6id6id.out
 41 43 0 0 0
SMALL
GASTEIGER

@<TRIPOS>ATOM
      1 C          -4.1468   -1.9380   -0.9163 C.ar    1  LIG1        0.0390
      2 C          -3.0533   -2.1680   -0.0759 C.ar    1  LIG1       -0.0394
      3 C          -2.7346   -1.2212    0.8831 C.ar    1  LIG1       -0.0406
      4 C          -3.5135   -0.0670    0.9682 C.ar    1  LIG1        0.0777
      5 C          -4.5814    0.0990    0.0741 C.ar    1  LIG1        0.0903
      6 N          -4.8796   -0.8264   -0.8317 N.ar    1  LIG1       -0.2505
      7 H          -1.9075   -1.3624    1.5660 H       1  LIG1        0.0632
      8 H          -2.4746   -3.0757   -0.1732 H       1  LIG1        0.0636
      9 C          -4.5734   -2.9337   -1.9717 C.3     1  LIG1       -0.0223
     10 H          -3.9011   -3.7891   -2.0008 H       1  LIG1        0.0292
     11 H          -4.5825   -2.4400   -2.9431 H       1  LIG1        0.0292
     12 H          -5.5861   -3.2727   -1.7502 H       1  LIG1        0.0292
     13 N          -2.9833    1.6837    2.8071 N.1     1  LIG1       -0.1908
     14 C          -3.2275    0.9167    1.9892 C.1     1  LIG1        0.1013
     15 C          -6.8426    1.2231    0.1111 C.ar    1  LIG1        0.0482
     16 C          -5.4375    1.3227    0.0855 C.ar    1  LIG1        0.0239
     17 C          -4.8628    2.5837    0.0497 C.ar    1  LIG1       -0.0313
     18 C          -5.6903    3.7060    0.0184 C.ar    1  LIG1        0.0784
     19 C          -7.0780    3.5241    0.0230 C.ar    1  LIG1        0.0904
     20 N          -7.6138    2.3067    0.0798 N.ar    1  LIG1       -0.2499
     21 H          -3.7877    2.7117    0.0400 H       1  LIG1        0.0638
     22 C          -7.5660   -0.1040    0.1864 C.3     1  LIG1       -0.0217
     23 H          -7.0932   -0.7592    0.9189 H       1  LIG1        0.0293
     24 H          -7.5273   -0.5965   -0.7852 H       1  LIG1        0.0293
     25 H          -8.5980    0.0948    0.4654 H       1  LIG1        0.0293
     26 N          -4.6073    6.0614   -0.0449 N.1     1  LIG1       -0.1908
     27 C          -5.0990    5.0256   -0.0079 C.1     1  LIG1        0.1013
     28 C          -9.1022    4.7724    0.8685 C.ar    1  LIG1        0.0475
     29 C          -8.0300    4.6722   -0.0407 C.ar    1  LIG1        0.0238
     30 C          -7.8846    5.6451   -1.0206 C.ar    1  LIG1       -0.0319
     31 C          -8.8149    6.6807   -1.0739 C.ar    1  LIG1        0.0705
     32 C          -9.8482    6.7017   -0.1393 C.ar    1  LIG1        0.0452
     33 N          -9.9782    5.7756    0.8017 N.ar    1  LIG1       -0.2582
     34 H          -7.0773    5.6035   -1.7406 H       1  LIG1        0.0638
     35 H         -10.5862    7.4941   -0.1573 H       1  LIG1        0.0843
     36 C          -9.3293    3.7682    1.9777 C.3     1  LIG1       -0.0217
     37 H          -8.3909    3.5146    2.4717 H       1  LIG1        0.0293
     38 H          -9.7508    2.8537    1.5599 H       1  LIG1        0.0293
     39 H         -10.0235    4.2118    2.6868 H       1  LIG1        0.0293
     40 N          -8.6619    8.5307   -2.8841 N.1     1  LIG1       -0.1908
     41 C          -8.7252    7.7131   -2.0820 C.1     1  LIG1        0.1007
@<TRIPOS>BOND
     1    11     9    1
     2    40    41    3
     3    41    31    1
     4    10     9    1
     5     9    12    1
     6     9     1    1
     7    34    30    1
     8    31    30   ar
     9    31    32   ar
    10    30    29   ar
    11     1     6   ar
    12     1     2   ar
    13     6     5   ar
    14    24    22    1
    15     8     2    1
    16    35    32    1
    17    32    33   ar
    18     2     3   ar
    19    26    27    3
    20    29    19    1
    21    29    28   ar
    22    27    18    1
    23    18    19   ar
    24    18    17   ar
    25    19    20   ar
    26    21    17    1
    27    17    16   ar
    28     5    16    1
    29     5     4   ar
    30    20    15   ar
    31    16    15   ar
    32    15    22    1
    33    22    25    1
    34    22    23    1
    35    33    28   ar
    36    28    36    1
    37     3     4   ar
    38     3     7    1
    39     4    14    1
    40    38    36    1
    41    36    37    1
    42    36    39    1
    43    14    13    3
