@<TRIPOS>MOLECULE
mol_data/opt/m06hf/geoms/mol2/6id6id.out
 28 29 0 0 0
SMALL
GASTEIGER

@<TRIPOS>ATOM
      1 C          -4.4262   -2.0280   -0.4868 C.ar    1  LIG1        0.0390
      2 C          -3.1167   -2.0927   -0.0012 C.ar    1  LIG1       -0.0394
      3 C          -2.5458   -0.9511    0.5361 C.ar    1  LIG1       -0.0406
      4 C          -3.2974    0.2234    0.5647 C.ar    1  LIG1        0.0777
      5 C          -4.5996    0.2112    0.0418 C.ar    1  LIG1        0.0903
      6 N          -5.1335   -0.8977   -0.4605 N.ar    1  LIG1       -0.2505
      7 H          -1.5409   -0.9553    0.9361 H       1  LIG1        0.0632
      8 H          -2.5666   -3.0221   -0.0414 H       1  LIG1        0.0636
      9 C          -5.1266   -3.2328   -1.0749 C.3     1  LIG1       -0.0223
     10 H          -4.4823   -4.1096   -1.0589 H       1  LIG1        0.0292
     11 H          -5.4161   -3.0085   -2.1015 H       1  LIG1        0.0292
     12 H          -6.0315   -3.4322   -0.5001 H       1  LIG1        0.0292
     13 N          -2.2577    2.3613    1.6023 N.1     1  LIG1       -0.1908
     14 C          -2.7311    1.4208    1.1457 C.1     1  LIG1        0.1013
     15 C          -6.7696    1.4162    0.5047 C.ar    1  LIG1        0.0475
     16 C          -5.4502    1.4391    0.0115 C.ar    1  LIG1        0.0238
     17 C          -4.9562    2.6163   -0.5339 C.ar    1  LIG1       -0.0319
     18 C          -5.7925    3.7294   -0.5843 C.ar    1  LIG1        0.0705
     19 C          -7.0858    3.6197   -0.0767 C.ar    1  LIG1        0.0452
     20 N          -7.5503    2.4960    0.4544 N.ar    1  LIG1       -0.2582
     21 H          -3.9486    2.6755   -0.9252 H       1  LIG1        0.0638
     22 H          -7.7577    4.4684   -0.1032 H       1  LIG1        0.0843
     23 C          -7.3855    0.1819    1.1275 C.3     1  LIG1       -0.0217
     24 H          -6.6920   -0.2868    1.8267 H       1  LIG1        0.0293
     25 H          -7.6211   -0.5414    0.3466 H       1  LIG1        0.0293
     26 H          -8.2922    0.4892    1.6421 H       1  LIG1        0.0293
     27 N          -4.9940    5.9621   -1.6336 N.1     1  LIG1       -0.1908
     28 C          -5.3429    4.9753   -1.1641 C.1     1  LIG1        0.1007
@<TRIPOS>BOND
     1    11     9    1
     2    27    28    3
     3    28    18    1
     4     9    10    1
     5     9    12    1
     6     9     1    1
     7    21    17    1
     8    18    17   ar
     9    18    19   ar
    10    17    16   ar
    11     1     6   ar
    12     1     2   ar
    13     6     5   ar
    14    22    19    1
    15    19    20   ar
    16     8     2    1
    17     2     3   ar
    18    16     5    1
    19    16    15   ar
    20     5     4   ar
    21    25    23    1
    22    20    15   ar
    23    15    23    1
    24     3     4   ar
    25     3     7    1
    26     4    14    1
    27    23    26    1
    28    23    24    1
    29    14    13    3
