@<TRIPOS>MOLECULE
mol_data/opt/m06hf/geoms/mol2/6ie6ie-6ie-6ie.out
 58 61 0 0 0
SMALL
GASTEIGER

@<TRIPOS>ATOM
      1 C          -4.1065   -1.9910    0.9324 C.ar    1  LIG1        0.0390
      2 C          -3.0971   -2.2964    0.0166 C.ar    1  LIG1       -0.0395
      3 C          -2.7966   -1.3806   -0.9788 C.ar    1  LIG1       -0.0426
      4 C          -3.4959   -0.1728   -1.0294 C.ar    1  LIG1        0.0507
      5 C          -4.4667    0.0671   -0.0418 C.ar    1  LIG1        0.0883
      6 N          -4.7666   -0.8326    0.8908 N.ar    1  LIG1       -0.2506
      7 H          -2.0433   -1.5887   -1.7268 H       1  LIG1        0.0631
      8 H          -2.5736   -3.2405    0.0797 H       1  LIG1        0.0636
      9 C          -4.5068   -2.9462    2.0360 C.3     1  LIG1       -0.0223
     10 H          -4.0403   -3.9205    1.9001 H       1  LIG1        0.0292
     11 H          -5.5908   -3.0532    2.0376 H       1  LIG1        0.0292
     12 H          -4.2034   -2.5305    2.9976 H       1  LIG1        0.0292
     13 C          -3.2568    0.7588   -2.1032 C.1     1  LIG1       -0.0675
     14 C          -3.0502    1.5031   -3.0248 C.1     1  LIG1       -0.1138
     15 H          -2.8784    2.1646   -3.8432 H       1  LIG1        0.1232
     16 C          -4.7016    2.6045    0.0977 C.ar    1  LIG1        0.0482
     17 C          -5.2706    1.3269   -0.0157 C.ar    1  LIG1        0.0238
     18 C          -6.6551    1.2210   -0.0430 C.ar    1  LIG1       -0.0333
     19 C          -7.4431    2.3702   -0.0277 C.ar    1  LIG1        0.0513
     20 C          -6.7850    3.6119    0.0253 C.ar    1  LIG1        0.0884
     21 N          -5.4620    3.6999    0.1057 N.ar    1  LIG1       -0.2499
     22 H          -7.1216    0.2447   -0.0697 H       1  LIG1        0.0637
     23 C          -3.2163    2.8483    0.2596 C.3     1  LIG1       -0.0217
     24 H          -3.0871    3.6624    0.9714 H       1  LIG1        0.0293
     25 H          -2.7898    3.1433   -0.6994 H       1  LIG1        0.0293
     26 H          -2.7028    1.9562    0.6150 H       1  LIG1        0.0293
     27 C          -8.8810    2.2568   -0.0363 C.1     1  LIG1       -0.0675
     28 C         -10.0758    2.1309   -0.0407 C.1     1  LIG1       -0.1138
     29 H         -11.1364    2.0305   -0.0411 H       1  LIG1        0.1232
     30 C          -7.2819    5.9230    0.9326 C.ar    1  LIG1        0.0482
     31 C          -7.5418    4.8996    0.0027 C.ar    1  LIG1        0.0238
     32 C          -8.5025    5.1216   -0.9735 C.ar    1  LIG1       -0.0333
     33 C          -9.1970    6.3319   -1.0018 C.ar    1  LIG1        0.0513
     34 C          -8.9078    7.2757   -0.0056 C.ar    1  LIG1        0.0884
     35 N          -7.9635    7.0677    0.9100 N.ar    1  LIG1       -0.2499
     36 H          -8.7083    4.3712   -1.7259 H       1  LIG1        0.0637
     37 C          -6.2377    5.7946    2.0215 C.3     1  LIG1       -0.0217
     38 H          -6.3744    6.6238    2.7112 H       1  LIG1        0.0293
     39 H          -5.2415    5.8219    1.5812 H       1  LIG1        0.0293
     40 H          -6.3464    4.8436    2.5453 H       1  LIG1        0.0293
     41 C         -10.1375    6.6005   -2.0609 C.1     1  LIG1       -0.0675
     42 C         -10.8982    6.8032   -2.9698 C.1     1  LIG1       -0.1138
     43 H         -11.5667    6.9958   -3.7773 H       1  LIG1        0.1232
     44 C         -10.9959    8.7097    0.2349 C.ar    1  LIG1        0.0475
     45 C          -9.6080    8.5943    0.0619 C.ar    1  LIG1        0.0237
     46 C          -8.8394    9.7515    0.0040 C.ar    1  LIG1       -0.0339
     47 C          -9.4715   10.9912    0.0596 C.ar    1  LIG1        0.0434
     48 C         -10.8640   11.0050    0.1913 C.ar    1  LIG1        0.0433
     49 N         -11.5936    9.9040    0.2894 N.ar    1  LIG1       -0.2583
     50 H          -7.7628    9.6846   -0.0834 H       1  LIG1        0.0637
     51 H         -11.3909   11.9508    0.2334 H       1  LIG1        0.0842
     52 C         -11.9097    7.5151    0.4125 C.3     1  LIG1       -0.0217
     53 H         -11.3697    6.6606    0.8188 H       1  LIG1        0.0293
     54 H         -12.3373    7.2350   -0.5510 H       1  LIG1        0.0293
     55 H         -12.7117    7.8082    1.0873 H       1  LIG1        0.0293
     56 C          -8.7288   12.2248   -0.0093 C.1     1  LIG1       -0.0681
     57 C          -8.1112   13.2539   -0.0647 C.1     1  LIG1       -0.1139
     58 H          -7.5608   14.1645   -0.1131 H       1  LIG1        0.1232
@<TRIPOS>BOND
     1    15    14    1
     2    43    42    1
     3    14    13    3
     4    42    41    3
     5    13     4    1
     6    41    33    1
     7     7     3    1
     8    36    32    1
     9     4     3   ar
    10     4     5   ar
    11    33    32   ar
    12    33    34   ar
    13     3     2   ar
    14    32    31   ar
    15    25    23    1
    16    54    52    1
    17    58    57    1
    18    50    46    1
    19    22    18    1
    20    57    56    3
    21    18    19   ar
    22    18    17   ar
    23     5    17    1
    24     5     6   ar
    25    29    28    1
    26    28    27    3
    27    27    19    1
    28    19    20   ar
    29    17    16   ar
    30    56    47    1
    31    34    45    1
    32    34    35   ar
    33    31    20    1
    34    31    30   ar
    35    46    47   ar
    36    46    45   ar
    37     2     8    1
    38     2     1   ar
    39    20    21   ar
    40    47    48   ar
    41    45    44   ar
    42    16    21   ar
    43    16    23    1
    44    48    51    1
    45    48    49   ar
    46    44    49   ar
    47    44    52    1
    48    23    26    1
    49    23    24    1
    50    52    53    1
    51    52    55    1
    52     6     1   ar
    53    35    30   ar
    54     1     9    1
    55    30    37    1
    56    39    37    1
    57    10     9    1
    58    37    40    1
    59    37    38    1
    60     9    11    1
    61     9    12    1
