@<TRIPOS>MOLECULE
mol_data/opt/m06hf/geoms/mol2/6ie6ie6ie6ie-.out
 58 61 0 0 0
SMALL
GASTEIGER

@<TRIPOS>ATOM
      1 C          -4.0809   -1.9663   -1.0087 C.ar    1  LIG1        0.0390
      2 C          -2.9373   -2.1782   -0.2355 C.ar    1  LIG1       -0.0395
      3 C          -2.5670   -1.2136    0.6876 C.ar    1  LIG1       -0.0426
      4 C          -3.3374   -0.0556    0.8166 C.ar    1  LIG1        0.0507
      5 C          -4.4628    0.0815   -0.0159 C.ar    1  LIG1        0.0883
      6 N          -4.8113   -0.8578   -0.8909 N.ar    1  LIG1       -0.2506
      7 H          -1.6973   -1.3426    1.3180 H       1  LIG1        0.0631
      8 H          -2.3605   -3.0849   -0.3549 H       1  LIG1        0.0636
      9 C          -4.5625   -2.9729   -2.0308 C.3     1  LIG1       -0.0223
     10 H          -3.9453   -3.8697   -2.0219 H       1  LIG1        0.0292
     11 H          -4.5321   -2.5193   -3.0217 H       1  LIG1        0.0292
     12 H          -5.5963   -3.2386   -1.8087 H       1  LIG1        0.0292
     13 C          -2.9836    0.9364    1.8022 C.1     1  LIG1       -0.0675
     14 C          -2.6646    1.7433    2.6339 C.1     1  LIG1       -0.1138
     15 H          -2.3915    2.4642    3.3701 H       1  LIG1        0.1232
     16 C          -6.7328    1.1814    0.1273 C.ar    1  LIG1        0.0482
     17 C          -5.3337    1.2943    0.0285 C.ar    1  LIG1        0.0238
     18 C          -4.7787    2.5622   -0.0535 C.ar    1  LIG1       -0.0333
     19 C          -5.6067    3.6871   -0.0522 C.ar    1  LIG1        0.0513
     20 C          -6.9912    3.4797    0.0290 C.ar    1  LIG1        0.0884
     21 N          -7.5141    2.2584    0.1262 N.ar    1  LIG1       -0.2499
     22 H          -3.7064    2.6937   -0.1197 H       1  LIG1        0.0637
     23 C          -7.4401   -0.1518    0.2504 C.3     1  LIG1       -0.0217
     24 H          -6.9305   -0.7929    0.9706 H       1  LIG1        0.0293
     25 H          -7.4370   -0.6591   -0.7141 H       1  LIG1        0.0293
     26 H          -8.4614    0.0420    0.5703 H       1  LIG1        0.0293
     27 C          -5.0229    5.0049   -0.1092 C.1     1  LIG1       -0.0675
     28 C          -4.5058    6.0892   -0.1542 C.1     1  LIG1       -0.1138
     29 H          -4.0584    7.0559   -0.1923 H       1  LIG1        0.1232
     30 C          -8.9896    4.7226    0.9567 C.ar    1  LIG1        0.0482
     31 C          -7.9596    4.6166    0.0041 C.ar    1  LIG1        0.0238
     32 C          -7.8804    5.5763   -0.9952 C.ar    1  LIG1       -0.0333
     33 C          -8.8031    6.6227   -1.0252 C.ar    1  LIG1        0.0513
     34 C          -9.7738    6.6688   -0.0145 C.ar    1  LIG1        0.0884
     35 N          -9.8582    5.7331    0.9287 N.ar    1  LIG1       -0.2499
     36 H          -7.1186    5.5144   -1.7616 H       1  LIG1        0.0637
     37 C          -9.1758    3.7205    2.0765 C.3     1  LIG1       -0.0217
     38 H          -8.2196    3.4820    2.5435 H       1  LIG1        0.0293
     39 H          -9.5921    2.7959    1.6766 H       1  LIG1        0.0293
     40 H          -9.8559    4.1578    2.8034 H       1  LIG1        0.0293
     41 C          -8.7695    7.5922   -2.0916 C.1     1  LIG1       -0.0675
     42 C          -8.7292    8.3788   -2.9995 C.1     1  LIG1       -0.1138
     43 H          -8.7063    9.0749   -3.8056 H       1  LIG1        0.1232
     44 C         -10.4511    9.0976    0.2657 C.ar    1  LIG1        0.0475
     45 C         -10.7980    7.7567    0.0381 C.ar    1  LIG1        0.0237
     46 C         -12.1387    7.4214   -0.0972 C.ar    1  LIG1       -0.0339
     47 C         -13.0978    8.4322   -0.0546 C.ar    1  LIG1        0.0434
     48 C         -12.6533    9.7426    0.1431 C.ar    1  LIG1        0.0433
     49 N         -11.3765   10.0590    0.3095 N.ar    1  LIG1       -0.2583
     50 H         -12.4326    6.3890   -0.2354 H       1  LIG1        0.0637
     51 H         -13.3702   10.5540    0.1794 H       1  LIG1        0.0842
     52 C          -9.0220    9.5364    0.5067 C.3     1  LIG1       -0.0217
     53 H          -9.0490   10.4701    1.0641 H       1  LIG1        0.0293
     54 H          -8.5195    9.6999   -0.4482 H       1  LIG1        0.0293
     55 H          -8.4722    8.7790    1.0656 H       1  LIG1        0.0293
     56 C         -14.5033    8.1488   -0.2046 C.1     1  LIG1       -0.0681
     57 C         -15.6748    7.9133   -0.3295 C.1     1  LIG1       -0.1139
     58 H         -16.7128    7.7014   -0.4402 H       1  LIG1        0.1232
@<TRIPOS>BOND
     1    43    42    1
     2    11     9    1
     3    42    41    3
     4    41    33    1
     5     9    10    1
     6     9    12    1
     7     9     1    1
     8    36    32    1
     9    33    32   ar
    10    33    34   ar
    11     1     6   ar
    12     1     2   ar
    13    32    31   ar
    14     6     5   ar
    15    25    23    1
    16    54    52    1
    17    58    57    1
    18     8     2    1
    19    57    56    3
    20     2     3   ar
    21    50    46    1
    22    56    47    1
    23    29    28    1
    24    28    27    3
    25    22    18    1
    26    27    19    1
    27    46    47   ar
    28    46    45   ar
    29    47    48   ar
    30    18    19   ar
    31    18    17   ar
    32    19    20   ar
    33     5    17    1
    34     5     4   ar
    35    34    45    1
    36    34    35   ar
    37    31    20    1
    38    31    30   ar
    39    17    16   ar
    40    20    21   ar
    41    45    44   ar
    42    21    16   ar
    43    16    23    1
    44    48    51    1
    45    48    49   ar
    46    23    26    1
    47    23    24    1
    48    44    49   ar
    49    44    52    1
    50    52    53    1
    51    52    55    1
    52     3     4   ar
    53     3     7    1
    54     4    13    1
    55    35    30   ar
    56    30    37    1
    57    39    37    1
    58    13    14    3
    59    37    38    1
    60    37    40    1
    61    14    15    1
