@<TRIPOS>MOLECULE
mol_data/opt/m06hf/geoms/mol2/6ie6ie-6ie-6ie-.out
 58 61 0 0 0
SMALL
GASTEIGER

@<TRIPOS>ATOM
      1 C          -3.5974   -1.7351    0.9402 C.ar    1  LIG1        0.0390
      2 C          -3.0279   -2.2444   -0.2290 C.ar    1  LIG1       -0.0395
      3 C          -3.2243   -1.5658   -1.4211 C.ar    1  LIG1       -0.0426
      4 C          -3.9687   -0.3844   -1.4189 C.ar    1  LIG1        0.0507
      5 C          -4.4712    0.0741   -0.1889 C.ar    1  LIG1        0.0883
      6 N          -4.3007   -0.6013    0.9439 N.ar    1  LIG1       -0.2506
      7 H          -2.8251   -1.9392   -2.3545 H       1  LIG1        0.0631
      8 H          -2.4569   -3.1623   -0.2000 H       1  LIG1        0.0636
      9 C          -3.4420   -2.4274    2.2770 C.3     1  LIG1       -0.0223
     10 H          -2.9964   -3.4136    2.1585 H       1  LIG1        0.0292
     11 H          -4.4208   -2.5190    2.7464 H       1  LIG1        0.0292
     12 H          -2.8081   -1.8192    2.9239 H       1  LIG1        0.0292
     13 C          -4.2477    0.3020   -2.6554 C.1     1  LIG1       -0.0675
     14 C          -4.4800    0.8398   -3.7049 C.1     1  LIG1       -0.1138
     15 H          -4.6934    1.3191   -4.6326 H       1  LIG1        0.1232
     16 C          -4.7877    2.5900   -0.4507 C.ar    1  LIG1        0.0482
     17 C          -5.2819    1.3262   -0.0912 C.ar    1  LIG1        0.0238
     18 C          -6.5652    1.2428    0.4320 C.ar    1  LIG1       -0.0333
     19 C          -7.3533    2.3888    0.5294 C.ar    1  LIG1        0.0513
     20 C          -6.7971    3.6028    0.0916 C.ar    1  LIG1        0.0884
     21 N          -5.5488    3.6802   -0.3584 N.ar    1  LIG1       -0.2499
     22 H          -6.9508    0.2900    0.7702 H       1  LIG1        0.0637
     23 C          -3.3699    2.8263   -0.9258 C.3     1  LIG1       -0.0217
     24 H          -3.0377    3.7823   -0.5239 H       1  LIG1        0.0293
     25 H          -3.3541    2.8747   -2.0152 H       1  LIG1        0.0293
     26 H          -2.7024    2.0309   -0.5976 H       1  LIG1        0.0293
     27 C          -8.6793    2.3046    1.0905 C.1     1  LIG1       -0.0675
     28 C          -9.7796    2.2032    1.5628 C.1     1  LIG1       -0.1138
     29 H         -10.7564    2.1221    1.9808 H       1  LIG1        0.1232
     30 C          -7.0355    6.0492    0.6847 C.ar    1  LIG1        0.0482
     31 C          -7.5728    4.8788    0.1170 C.ar    1  LIG1        0.0238
     32 C          -8.8407    4.9379   -0.4406 C.ar    1  LIG1       -0.0333
     33 C          -9.5463    6.1434   -0.4402 C.ar    1  LIG1        0.0513
     34 C          -8.9284    7.2636    0.1343 C.ar    1  LIG1        0.0884
     35 N          -7.7157    7.1926    0.6811 N.ar    1  LIG1       -0.2499
     36 H          -9.2940    4.0569   -0.8759 H       1  LIG1        0.0637
     37 C          -5.6722    6.0874    1.3419 C.3     1  LIG1       -0.0217
     38 H          -5.5915    7.0247    1.8874 H       1  LIG1        0.0293
     39 H          -4.8961    6.0232    0.5793 H       1  LIG1        0.0293
     40 H          -5.5488    5.2409    2.0188 H       1  LIG1        0.0293
     41 C         -10.8759    6.1952   -0.9974 C.1     1  LIG1       -0.0675
     42 C         -11.9811    6.2059   -1.4688 C.1     1  LIG1       -0.1138
     43 H         -12.9624    6.2258   -1.8830 H       1  LIG1        0.1232
     44 C          -9.6913    9.3359    1.3593 C.ar    1  LIG1        0.0475
     45 C          -9.5910    8.6023    0.1629 C.ar    1  LIG1        0.0237
     46 C         -10.0961    9.1546   -1.0067 C.ar    1  LIG1       -0.0339
     47 C         -10.6805   10.4208   -0.9649 C.ar    1  LIG1        0.0434
     48 C         -10.7331   11.0723    0.2684 C.ar    1  LIG1        0.0433
     49 N         -10.2582   10.5433    1.3892 N.ar    1  LIG1       -0.2583
     50 H         -10.0341    8.6177   -1.9442 H       1  LIG1        0.0637
     51 H         -11.1794   12.0567    0.3408 H       1  LIG1        0.0842
     52 C          -9.1780    8.8091    2.6829 C.3     1  LIG1       -0.0217
     53 H          -9.5908    9.4348    3.4706 H       1  LIG1        0.0293
     54 H          -8.0890    8.8528    2.6975 H       1  LIG1        0.0293
     55 H          -9.4751    7.7696    2.8274 H       1  LIG1        0.0293
     56 C         -11.2142   11.0458   -2.1496 C.1     1  LIG1       -0.0681
     57 C         -11.6593   11.5688   -3.1353 C.1     1  LIG1       -0.1139
     58 H         -12.0521   12.0321   -4.0102 H       1  LIG1        0.1232
@<TRIPOS>BOND
     1    15    14    1
     2    58    57    1
     3    14    13    3
     4    57    56    3
     5    13     4    1
     6     7     3    1
     7    56    47    1
     8    25    23    1
     9    50    46    1
    10    43    42    1
    11    42    41    3
    12     3     4   ar
    13     3     2   ar
    14     4     5   ar
    15    46    47   ar
    16    46    45   ar
    17    41    33    1
    18    47    48   ar
    19    23    26    1
    20    23    24    1
    21    23    16    1
    22    36    32    1
    23    16    21   ar
    24    16    17   ar
    25    32    33   ar
    26    32    31   ar
    27    33    34   ar
    28    21    20   ar
    29     2     8    1
    30     2     1   ar
    31     5    17    1
    32     5     6   ar
    33    17    18   ar
    34    20    31    1
    35    20    19   ar
    36    31    30   ar
    37    34    45    1
    38    34    35   ar
    39    45    44   ar
    40    48    51    1
    41    48    49   ar
    42    18    19   ar
    43    18    22    1
    44    19    27    1
    45    39    37    1
    46    35    30   ar
    47    30    37    1
    48     1     6   ar
    49     1     9    1
    50    27    28    3
    51    37    38    1
    52    37    40    1
    53    44    49   ar
    54    44    52    1
    55    28    29    1
    56    10     9    1
    57     9    11    1
    58     9    12    1
    59    52    54    1
    60    52    55    1
    61    52    53    1
