@<TRIPOS>MOLECULE
mol_data/opt/m06hf/geoms/mol2/6ie6ie-6ie.out
 44 46 0 0 0
SMALL
GASTEIGER

@<TRIPOS>ATOM
      1 C          -4.4128   -2.0941    0.4718 C.ar    1  LIG1        0.0390
      2 C          -3.0839   -2.1678    0.0486 C.ar    1  LIG1       -0.0395
      3 C          -2.4707   -1.0251   -0.4412 C.ar    1  LIG1       -0.0426
      4 C          -3.1923    0.1691   -0.4830 C.ar    1  LIG1        0.0507
      5 C          -4.5142    0.1567   -0.0071 C.ar    1  LIG1        0.0883
      6 N          -5.1004   -0.9502    0.4382 N.ar    1  LIG1       -0.2506
      7 H          -1.4506   -1.0423   -0.8003 H       1  LIG1        0.0631
      8 H          -2.5510   -3.1076    0.0939 H       1  LIG1        0.0636
      9 C          -5.1577   -3.3016    0.9981 C.3     1  LIG1       -0.0223
     10 H          -4.5345   -4.1937    0.9620 H       1  LIG1        0.0292
     11 H          -6.0546   -3.4572    0.3987 H       1  LIG1        0.0292
     12 H          -5.4644   -3.1117    2.0268 H       1  LIG1        0.0292
     13 C          -2.6014    1.3624   -1.0361 C.1     1  LIG1       -0.0675
     14 C          -2.0891    2.3404   -1.5118 C.1     1  LIG1       -0.1138
     15 H          -1.6424    3.2089   -1.9389 H       1  LIG1        0.1232
     16 C          -5.0613    2.4981    0.8031 C.ar    1  LIG1        0.0482
     17 C          -5.3545    1.3943   -0.0129 C.ar    1  LIG1        0.0238
     18 C          -6.4792    1.4435   -0.8220 C.ar    1  LIG1       -0.0333
     19 C          -7.2716    2.5920   -0.8300 C.ar    1  LIG1        0.0513
     20 C          -6.9034    3.6483    0.0169 C.ar    1  LIG1        0.0884
     21 N          -5.8287    3.5884    0.7988 N.ar    1  LIG1       -0.2499
     22 H          -6.7372    0.6014   -1.4508 H       1  LIG1        0.0637
     23 C          -3.8856    2.5086    1.7569 C.3     1  LIG1       -0.0217
     24 H          -4.0496    3.3022    2.4820 H       1  LIG1        0.0293
     25 H          -2.9624    2.7013    1.2077 H       1  LIG1        0.0293
     26 H          -3.7960    1.5475    2.2643 H       1  LIG1        0.0293
     27 C          -8.4078    2.6917   -1.7114 C.1     1  LIG1       -0.0675
     28 C          -9.3455    2.7611   -2.4597 C.1     1  LIG1       -0.1138
     29 H         -10.1759    2.8341   -3.1232 H       1  LIG1        0.1232
     30 C          -9.0033    4.9610    0.5662 C.ar    1  LIG1        0.0475
     31 C          -7.6911    4.9189    0.0674 C.ar    1  LIG1        0.0237
     32 C          -7.0901    6.0981   -0.3493 C.ar    1  LIG1       -0.0339
     33 C          -7.8231    7.2839   -0.3081 C.ar    1  LIG1        0.0434
     34 C          -9.1335    7.2217    0.1719 C.ar    1  LIG1        0.0433
     35 N          -9.6963    6.1009    0.6051 N.ar    1  LIG1       -0.2583
     36 H          -6.0672    6.0956   -0.7020 H       1  LIG1        0.0637
     37 H          -9.7352    8.1217    0.2150 H       1  LIG1        0.0842
     38 C          -9.6961    3.7327    1.1175 C.3     1  LIG1       -0.0217
     39 H          -9.0070    3.1417    1.7219 H       1  LIG1        0.0293
     40 H         -10.0623    3.1121    0.2979 H       1  LIG1        0.0293
     41 H         -10.5356    4.0663    1.7231 H       1  LIG1        0.0293
     42 C          -7.2594    8.5377   -0.7433 C.1     1  LIG1       -0.0681
     43 C          -6.7926    9.5841   -1.1053 C.1     1  LIG1       -0.1139
     44 H          -6.3777   10.5118   -1.4251 H       1  LIG1        0.1232
@<TRIPOS>BOND
     1    29    28    1
     2    28    27    3
     3    15    14    1
     4    27    19    1
     5    14    13    3
     6    22    18    1
     7    44    43    1
     8    43    42    3
     9    13     4    1
    10    19    18   ar
    11    19    20   ar
    12    18    17   ar
    13     7     3    1
    14    42    33    1
    15    36    32    1
    16     4     3   ar
    17     4     5   ar
    18     3     2   ar
    19    32    33   ar
    20    32    31   ar
    21    33    34   ar
    22    17     5    1
    23    17    16   ar
    24     5     6   ar
    25    20    31    1
    26    20    21   ar
    27     2     8    1
    28     2     1   ar
    29    31    30   ar
    30    34    37    1
    31    34    35   ar
    32    40    38    1
    33    11     9    1
    34     6     1   ar
    35     1     9    1
    36    30    35   ar
    37    30    38    1
    38    21    16   ar
    39    16    23    1
    40    10     9    1
    41     9    12    1
    42    38    39    1
    43    38    41    1
    44    25    23    1
    45    23    26    1
    46    23    24    1
