@<TRIPOS>MOLECULE
mol_data/opt/m06hf/geoms/mol2/6ie6ie-4ie6ie.out
 59 62 0 0 0
SMALL
GASTEIGER

@<TRIPOS>ATOM
      1 C          -3.9583   -1.9603    0.8605 C.ar    1  LIG1        0.0390
      2 C          -2.9781   -2.2183   -0.0999 C.ar    1  LIG1       -0.0395
      3 C          -2.7567   -1.2845   -1.1002 C.ar    1  LIG1       -0.0426
      4 C          -3.5056   -0.1066   -1.1102 C.ar    1  LIG1        0.0507
      5 C          -4.4473    0.0836   -0.0844 C.ar    1  LIG1        0.0883
      6 N          -4.6691   -0.8305    0.8551 N.ar    1  LIG1       -0.2506
      7 H          -2.0247   -1.4556   -1.8781 H       1  LIG1        0.0631
      8 H          -2.4132   -3.1397   -0.0659 H       1  LIG1        0.0636
      9 C          -4.2788   -2.9416    1.9670 C.3     1  LIG1       -0.0223
     10 H          -3.6527   -3.8297    1.8977 H       1  LIG1        0.0292
     11 H          -5.3284   -3.2280    1.8965 H       1  LIG1        0.0292
     12 H          -4.1219   -2.4572    2.9307 H       1  LIG1        0.0292
     13 C          -3.3401    0.8556   -2.1708 C.1     1  LIG1       -0.0675
     14 C          -3.1927    1.6357   -3.0733 C.1     1  LIG1       -0.1138
     15 H          -3.0743    2.3316   -3.8717 H       1  LIG1        0.1232
     16 C          -4.7505    2.5946    0.1819 C.ar    1  LIG1        0.0482
     17 C          -5.2924    1.3152   -0.0216 C.ar    1  LIG1        0.0238
     18 C          -6.6700    1.1877   -0.1132 C.ar    1  LIG1       -0.0333
     19 C          -7.4778    2.3245   -0.0669 C.ar    1  LIG1        0.0513
     20 C          -6.8467    3.5715    0.0812 C.ar    1  LIG1        0.0869
     21 N          -5.5272    3.6756    0.2221 N.ar    1  LIG1       -0.2500
     22 H          -7.1200    0.2087   -0.2148 H       1  LIG1        0.0637
     23 C          -3.2708    2.8302    0.3973 C.3     1  LIG1       -0.0217
     24 H          -3.1559    3.7563    0.9569 H       1  LIG1        0.0293
     25 H          -2.7697    2.9277   -0.5672 H       1  LIG1        0.0293
     26 H          -2.8203    2.0017    0.9437 H       1  LIG1        0.0293
     27 C          -8.9117    2.1874   -0.1430 C.1     1  LIG1       -0.0675
     28 C         -10.1026    2.0388   -0.2080 C.1     1  LIG1       -0.1138
     29 H         -11.1601    1.9208   -0.2658 H       1  LIG1        0.1232
     30 C          -7.4359    5.7930    1.1220 C.ar    1  LIG1       -0.0406
     31 C          -8.1729    6.9763    1.0676 C.ar    1  LIG1       -0.0493
     32 C          -7.6217    4.8516    0.0977 C.ar    1  LIG1        0.0056
     33 C          -9.0707    7.2475    0.0374 C.ar    1  LIG1       -0.0005
     34 H          -8.0565    7.7103    1.8568 H       1  LIG1        0.0627
     35 C          -8.5133    5.1090   -0.9396 C.ar    1  LIG1       -0.0363
     36 C          -9.2374    6.3014   -0.9830 C.ar    1  LIG1        0.0331
     37 H          -8.6462    4.3853   -1.7331 H       1  LIG1        0.0637
     38 C          -6.4806    5.5559    2.2769 C.3     1  LIG1       -0.0391
     39 H          -6.6827    6.2711    3.0736 H       1  LIG1        0.0278
     40 H          -5.4514    5.6667    1.9367 H       1  LIG1        0.0278
     41 H          -6.5960    4.5442    2.6677 H       1  LIG1        0.0278
     42 C         -10.1372    6.5513   -2.0853 C.1     1  LIG1       -0.0690
     43 C         -10.8854    6.7479   -3.0054 C.1     1  LIG1       -0.1139
     44 H         -11.5438    6.9293   -3.8227 H       1  LIG1        0.1232
     45 C         -11.2016    8.5817    0.3113 C.ar    1  LIG1        0.0460
     46 C          -9.8246    8.5379    0.0277 C.ar    1  LIG1        0.0055
     47 C          -9.1603    9.7267   -0.2392 C.ar    1  LIG1       -0.0354
     48 C          -9.8784   10.9246   -0.2368 C.ar    1  LIG1        0.0433
     49 C         -11.2445   10.8633    0.0427 C.ar    1  LIG1        0.0433
     50 N         -11.8804    9.7290    0.3129 N.ar    1  LIG1       -0.2583
     51 H          -8.0997    9.7262   -0.4561 H       1  LIG1        0.0637
     52 H         -11.8345   11.7718    0.0523 H       1  LIG1        0.0842
     53 C         -11.9826    7.3278    0.6402 C.3     1  LIG1       -0.0218
     54 H         -11.4418    6.7181    1.3653 H       1  LIG1        0.0293
     55 H         -12.1293    6.7373   -0.2662 H       1  LIG1        0.0293
     56 H         -12.9479    7.6275    1.0410 H       1  LIG1        0.0293
     57 C          -9.2388   12.1869   -0.5126 C.1     1  LIG1       -0.0681
     58 C          -8.7033   13.2372   -0.7445 C.1     1  LIG1       -0.1139
     59 H          -8.2267   14.1670   -0.9520 H       1  LIG1        0.1232
@<TRIPOS>BOND
     1    15    14    1
     2    44    43    1
     3    14    13    3
     4    43    42    3
     5    13     4    1
     6    42    36    1
     7     7     3    1
     8    37    35    1
     9     4     3   ar
    10     4     5   ar
    11     3     2   ar
    12    36    35   ar
    13    36    33   ar
    14    59    58    1
    15    35    32   ar
    16    58    57    3
    17    25    23    1
    18    57    48    1
    19    51    47    1
    20    55    53    1
    21    29    28    1
    22    47    48   ar
    23    47    46   ar
    24    48    49   ar
    25    22    18    1
    26    28    27    3
    27    27    19    1
    28    18    19   ar
    29    18    17   ar
    30     2     8    1
    31     2     1   ar
    32     5    17    1
    33     5     6   ar
    34    19    20   ar
    35    17    16   ar
    36    46    33    1
    37    46    45   ar
    38    33    31   ar
    39    49    52    1
    40    49    50   ar
    41    20    32    1
    42    20    21   ar
    43    32    30   ar
    44    16    21   ar
    45    16    23    1
    46    45    50   ar
    47    45    53    1
    48    23    26    1
    49    23    24    1
    50    53    56    1
    51    53    54    1
    52     6     1   ar
    53     1     9    1
    54    31    30   ar
    55    31    34    1
    56    30    38    1
    57    11     9    1
    58    10     9    1
    59    40    38    1
    60     9    12    1
    61    38    41    1
    62    38    39    1
