@<TRIPOS>MOLECULE
mol_data/opt/m06hf/geoms/mol2/6ie6ie6ie-6ie.out
 58 61 0 0 0
SMALL
GASTEIGER

@<TRIPOS>ATOM
      1 C          -4.3669   -2.1812   -0.5575 C.ar    1  LIG1        0.0390
      2 C          -3.0676   -2.2746   -0.0532 C.ar    1  LIG1       -0.0395
      3 C          -2.4853   -1.1487    0.5057 C.ar    1  LIG1       -0.0426
      4 C          -3.2052    0.0478    0.5445 C.ar    1  LIG1        0.0507
      5 C          -4.5020    0.0530    0.0016 C.ar    1  LIG1        0.0883
      6 N          -5.0513   -1.0380   -0.5247 N.ar    1  LIG1       -0.2506
      7 H          -1.4861   -1.1783    0.9191 H       1  LIG1        0.0631
      8 H          -2.5342   -3.2144   -0.0957 H       1  LIG1        0.0636
      9 C          -5.0805   -3.3651   -1.1735 C.3     1  LIG1       -0.0223
     10 H          -4.4561   -4.2566   -1.1506 H       1  LIG1        0.0292
     11 H          -5.3416   -3.1280   -2.2050 H       1  LIG1        0.0292
     12 H          -6.0030   -3.5518   -0.6226 H       1  LIG1        0.0292
     13 C          -2.6226    1.2188    1.1523 C.1     1  LIG1       -0.0675
     14 C          -2.1097    2.1749    1.6688 C.1     1  LIG1       -0.1138
     15 H          -1.6636    3.0274    2.1265 H       1  LIG1        0.1232
     16 C          -6.6589    1.2901    0.4590 C.ar    1  LIG1        0.0482
     17 C          -5.3355    1.2930   -0.0178 C.ar    1  LIG1        0.0238
     18 C          -4.8258    2.4689   -0.5475 C.ar    1  LIG1       -0.0333
     19 C          -5.6205    3.6167   -0.5822 C.ar    1  LIG1        0.0513
     20 C          -6.9105    3.5349   -0.0399 C.ar    1  LIG1        0.0884
     21 N          -7.4025    2.3945    0.4419 N.ar    1  LIG1       -0.2499
     22 H          -3.8220    2.5037   -0.9514 H       1  LIG1        0.0637
     23 C          -7.3158    0.0520    1.0319 C.3     1  LIG1       -0.0217
     24 H          -6.6662   -0.4153    1.7739 H       1  LIG1        0.0293
     25 H          -7.4918   -0.6717    0.2363 H       1  LIG1        0.0293
     26 H          -8.2542    0.3546    1.4896 H       1  LIG1        0.0293
     27 C          -5.1258    4.8168   -1.2090 C.1     1  LIG1       -0.0675
     28 C          -4.6885    5.7937   -1.7568 C.1     1  LIG1       -0.1138
     29 H          -4.3078    6.6622   -2.2440 H       1  LIG1        0.1232
     30 C          -7.5460    5.9183    0.6184 C.ar    1  LIG1        0.0482
     31 C          -7.8427    4.7027   -0.0155 C.ar    1  LIG1        0.0238
     32 C          -9.0898    4.5512   -0.6117 C.ar    1  LIG1       -0.0333
     33 C          -9.9915    5.6116   -0.6077 C.ar    1  LIG1        0.0513
     34 C          -9.6028    6.7985    0.0367 C.ar    1  LIG1        0.0884
     35 N          -8.4195    6.9300    0.6231 N.ar    1  LIG1       -0.2499
     36 H          -9.3534    3.6127   -1.0818 H       1  LIG1        0.0637
     37 C          -6.2637    6.1748    1.3809 C.3     1  LIG1       -0.0217
     38 H          -6.5182    6.7233    2.2862 H       1  LIG1        0.0293
     39 H          -5.5959    6.7858    0.7729 H       1  LIG1        0.0293
     40 H          -5.7579    5.2449    1.6358 H       1  LIG1        0.0293
     41 C         -11.2678    5.4948   -1.2678 C.1     1  LIG1       -0.0675
     42 C         -12.3259    5.3808   -1.8269 C.1     1  LIG1       -0.1138
     43 H         -13.2650    5.2867   -2.3219 H       1  LIG1        0.1232
     44 C         -11.6954    7.9825    0.8324 C.ar    1  LIG1        0.0475
     45 C         -10.5080    7.9890    0.0832 C.ar    1  LIG1        0.0237
     46 C         -10.1451    9.1436   -0.5949 C.ar    1  LIG1       -0.0339
     47 C         -10.9919   10.2513   -0.5482 C.ar    1  LIG1        0.0434
     48 C         -12.1663   10.1407    0.2003 C.ar    1  LIG1        0.0433
     49 N         -12.4979    9.0475    0.8754 N.ar    1  LIG1       -0.2583
     50 H          -9.2175    9.1834   -1.1509 H       1  LIG1        0.0637
     51 H         -12.8499   10.9793    0.2578 H       1  LIG1        0.0842
     52 C         -12.1183    6.7834    1.6541 C.3     1  LIG1       -0.0217
     53 H         -11.2629    6.3559    2.1784 H       1  LIG1        0.0293
     54 H         -12.5463    6.0189    1.0028 H       1  LIG1        0.0293
     55 H         -12.8694    7.1144    2.3675 H       1  LIG1        0.0293
     56 C         -10.6762   11.4749   -1.2418 C.1     1  LIG1       -0.0681
     57 C         -10.4150   12.4953   -1.8197 C.1     1  LIG1       -0.1139
     58 H         -10.1836   13.4004   -2.3314 H       1  LIG1        0.1232
@<TRIPOS>BOND
     1    58    57    1
     2    43    42    1
     3    29    28    1
     4    11     9    1
     5    42    41    3
     6    57    56    3
     7    28    27    3
     8    41    33    1
     9    56    47    1
    10    27    19    1
    11     9    10    1
    12     9    12    1
    13     9     1    1
    14    50    46    1
    15    36    32    1
    16    22    18    1
    17    32    33   ar
    18    32    31   ar
    19    33    34   ar
    20    46    47   ar
    21    46    45   ar
    22    19    18   ar
    23    19    20   ar
    24     1     6   ar
    25     1     2   ar
    26    47    48   ar
    27    18    17   ar
    28     6     5   ar
    29     8     2    1
    30     2     3   ar
    31    20    31    1
    32    20    21   ar
    33    17     5    1
    34    17    16   ar
    35    31    30   ar
    36     5     4   ar
    37    34    45    1
    38    34    35   ar
    39    45    44   ar
    40    48    51    1
    41    48    49   ar
    42    25    23    1
    43    21    16   ar
    44    16    23    1
    45     3     4   ar
    46     3     7    1
    47     4    13    1
    48    30    35   ar
    49    30    37    1
    50    39    37    1
    51    44    49   ar
    52    44    52    1
    53    54    52    1
    54    23    26    1
    55    23    24    1
    56    13    14    3
    57    37    40    1
    58    37    38    1
    59    52    53    1
    60    52    55    1
    61    14    15    1
