@<TRIPOS>MOLECULE
mol_data/opt/m06hf/geoms/mol2/6ie6ie-.out
 30 31 0 0 0
SMALL
GASTEIGER

@<TRIPOS>ATOM
      1 C          -4.3788   -1.9708   -0.6896 C.ar    1  LIG1        0.0390
      2 C          -3.1115   -2.0772   -0.1137 C.ar    1  LIG1       -0.0395
      3 C          -2.5787   -0.9773    0.5407 C.ar    1  LIG1       -0.0426
      4 C          -3.3143    0.2075    0.5922 C.ar    1  LIG1        0.0507
      5 C          -4.5685    0.2330   -0.0426 C.ar    1  LIG1        0.0883
      6 N          -5.0798   -0.8354   -0.6461 N.ar    1  LIG1       -0.2506
      7 H          -1.6104   -1.0228    1.0209 H       1  LIG1        0.0631
      8 H          -2.5653   -3.0085   -0.1692 H       1  LIG1        0.0636
      9 C          -5.0398   -3.1309   -1.4022 C.3     1  LIG1       -0.0223
     10 H          -4.4200   -4.0246   -1.3583 H       1  LIG1        0.0292
     11 H          -5.2144   -2.8583   -2.4433 H       1  LIG1        0.0292
     12 H          -6.0051   -3.3317   -0.9374 H       1  LIG1        0.0292
     13 C          -2.8107    1.3487    1.3147 C.1     1  LIG1       -0.0675
     14 C          -2.3767    2.2828    1.9344 C.1     1  LIG1       -0.1138
     15 H          -2.0042    3.1153    2.4854 H       1  LIG1        0.1232
     16 C          -5.0364    2.6461   -0.6792 C.ar    1  LIG1        0.0475
     17 C          -5.4216    1.4616   -0.0323 C.ar    1  LIG1        0.0237
     18 C          -6.6553    1.4115    0.6035 C.ar    1  LIG1       -0.0339
     19 C          -7.4552    2.5526    0.6227 C.ar    1  LIG1        0.0434
     20 C          -6.9729    3.6956   -0.0220 C.ar    1  LIG1        0.0433
     21 N          -5.8113    3.7333   -0.6601 N.ar    1  LIG1       -0.2583
     22 H          -6.9890    0.4970    1.0760 H       1  LIG1        0.0637
     23 H          -7.5649    4.6025   -0.0248 H       1  LIG1        0.0842
     24 C          -3.7445    2.7641   -1.4594 C.3     1  LIG1       -0.0217
     25 H          -3.8745    3.5431   -2.2073 H       1  LIG1        0.0293
     26 H          -3.4904    1.8197   -1.9405 H       1  LIG1        0.0293
     27 H          -2.9321    3.0439   -0.7866 H       1  LIG1        0.0293
     28 C          -8.7392    2.5665    1.2784 C.1     1  LIG1       -0.0681
     29 C          -9.8086    2.5822    1.8262 C.1     1  LIG1       -0.1139
     30 H         -10.7566    2.5978    2.3120 H       1  LIG1        0.1232
@<TRIPOS>BOND
     1    11     9    1
     2    25    24    1
     3    26    24    1
     4    24    27    1
     5    24    16    1
     6     9    10    1
     7     9    12    1
     8     9     1    1
     9     1     6   ar
    10     1     2   ar
    11    16    21   ar
    12    16    17   ar
    13    21    20   ar
    14     6     5   ar
    15     8     2    1
    16     2     3   ar
    17     5    17    1
    18     5     4   ar
    19    17    18   ar
    20    23    20    1
    21    20    19   ar
    22     3     4   ar
    23     3     7    1
    24     4    13    1
    25    18    19   ar
    26    18    22    1
    27    19    28    1
    28    28    29    3
    29    13    14    3
    30    29    30    1
    31    14    15    1
