@<TRIPOS>MOLECULE
mol_data/opt/m06hf/geoms/mol2/6ie6ie.out
 30 31 0 0 0
SMALL
GASTEIGER

@<TRIPOS>ATOM
      1 C          -4.4542   -2.0000   -0.6032 C.ar    1  LIG1        0.0390
      2 C          -3.1186   -2.0787   -0.2026 C.ar    1  LIG1       -0.0395
      3 C          -2.5137   -0.9500    0.3261 C.ar    1  LIG1       -0.0426
      4 C          -3.2471    0.2332    0.4387 C.ar    1  LIG1        0.0507
      5 C          -4.5822    0.2257   -0.0047 C.ar    1  LIG1        0.0883
      6 N          -5.1517   -0.8689   -0.5028 N.ar    1  LIG1       -0.2506
      7 H          -1.4854   -0.9684    0.6614 H       1  LIG1        0.0631
      8 H          -2.5741   -3.0076   -0.3000 H       1  LIG1        0.0636
      9 C          -5.1971   -3.1885   -1.1749 C.3     1  LIG1       -0.0223
     10 H          -4.5570   -4.0677   -1.2205 H       1  LIG1        0.0292
     11 H          -5.5509   -2.9409   -2.1756 H       1  LIG1        0.0292
     12 H          -6.0646   -3.4006   -0.5490 H       1  LIG1        0.0292
     13 C          -2.6361    1.4039    1.0189 C.1     1  LIG1       -0.0675
     14 C          -2.1013    2.3628    1.5085 C.1     1  LIG1       -0.1138
     15 H          -1.6406    3.2197    1.9443 H       1  LIG1        0.1232
     16 C          -6.7195    1.4127    0.6275 C.ar    1  LIG1        0.0475
     17 C          -5.4364    1.4507    0.0519 C.ar    1  LIG1        0.0237
     18 C          -4.9803    2.6446   -0.4916 C.ar    1  LIG1       -0.0339
     19 C          -5.8078    3.7671   -0.4607 C.ar    1  LIG1        0.0434
     20 C          -7.0654    3.6315    0.1303 C.ar    1  LIG1        0.0433
     21 N          -7.5002    2.4941    0.6581 N.ar    1  LIG1       -0.2583
     22 H          -3.9978    2.7081   -0.9407 H       1  LIG1        0.0637
     23 H          -7.7359    4.4809    0.1738 H       1  LIG1        0.0842
     24 C          -7.2951    0.1607    1.2555 C.3     1  LIG1       -0.0217
     25 H          -6.5589   -0.3236    1.8983 H       1  LIG1        0.0293
     26 H          -7.5773   -0.5454    0.4746 H       1  LIG1        0.0293
     27 H          -8.1688    0.4525    1.8333 H       1  LIG1        0.0293
     28 C          -5.3925    5.0306   -1.0172 C.1     1  LIG1       -0.0681
     29 C          -5.0547    6.0874   -1.4781 C.1     1  LIG1       -0.1139
     30 H          -4.7595    7.0256   -1.8870 H       1  LIG1        0.1232
@<TRIPOS>BOND
     1    11     9    1
     2    30    29    1
     3    29    28    3
     4    10     9    1
     5     9     1    1
     6     9    12    1
     7    28    19    1
     8    22    18    1
     9     1     6   ar
    10     1     2   ar
    11     6     5   ar
    12    18    19   ar
    13    18    17   ar
    14    19    20   ar
    15     8     2    1
    16     2     3   ar
    17     5    17    1
    18     5     4   ar
    19    17    16   ar
    20    20    23    1
    21    20    21   ar
    22     3     4   ar
    23     3     7    1
    24     4    13    1
    25    26    24    1
    26    16    21   ar
    27    16    24    1
    28    13    14    3
    29    24    27    1
    30    24    25    1
    31    14    15    1
