@<TRIPOS>MOLECULE
mol_data/opt/m06hf/geoms/mol2/6ie6ie-6ie6ie-.out
 58 61 0 0 0
SMALL
GASTEIGER

@<TRIPOS>ATOM
      1 C          -4.3465   -2.1475   -0.7160 C.ar    1  LIG1        0.0390
      2 C          -3.0510   -2.2572   -0.2060 C.ar    1  LIG1       -0.0395
      3 C          -2.4714   -1.1518    0.3967 C.ar    1  LIG1       -0.0426
      4 C          -3.1913    0.0424    0.4642 C.ar    1  LIG1        0.0507
      5 C          -4.4774    0.0683   -0.1004 C.ar    1  LIG1        0.0883
      6 N          -5.0332   -1.0043   -0.6551 N.ar    1  LIG1       -0.2506
      7 H          -1.4789   -1.1985    0.8247 H       1  LIG1        0.0631
      8 H          -2.5191   -3.1963   -0.2736 H       1  LIG1        0.0636
      9 C          -5.0480   -3.3110   -1.3825 C.3     1  LIG1       -0.0223
     10 H          -4.4837   -4.2335   -1.2576 H       1  LIG1        0.0292
     11 H          -5.1623   -3.0981   -2.4462 H       1  LIG1        0.0292
     12 H          -6.0410   -3.4248   -0.9495 H       1  LIG1        0.0292
     13 C          -2.6366    1.1921    1.1342 C.1     1  LIG1       -0.0675
     14 C          -2.1551    2.1319    1.7087 C.1     1  LIG1       -0.1138
     15 H          -1.7341    2.9676    2.2189 H       1  LIG1        0.1232
     16 C          -4.9565    2.4750   -0.7565 C.ar    1  LIG1        0.0482
     17 C          -5.3158    1.3068   -0.0666 C.ar    1  LIG1        0.0238
     18 C          -6.5062    1.2917    0.6460 C.ar    1  LIG1       -0.0333
     19 C          -7.2937    2.4416    0.6937 C.ar    1  LIG1        0.0513
     20 C          -6.8482    3.5690   -0.0124 C.ar    1  LIG1        0.0884
     21 N          -5.7174    3.5699   -0.7110 N.ar    1  LIG1       -0.2499
     22 H          -6.8176    0.3968    1.1688 H       1  LIG1        0.0637
     23 C          -3.7120    2.5663   -1.6132 C.3     1  LIG1       -0.0217
     24 H          -3.8787    3.3329   -2.3665 H       1  LIG1        0.0293
     25 H          -3.4969    1.6100   -2.0895 H       1  LIG1        0.0293
     26 H          -2.8588    2.8500   -0.9948 H       1  LIG1        0.0293
     27 C          -8.5076    2.4707    1.4707 C.1     1  LIG1       -0.0675
     28 C          -9.5124    2.4770    2.1299 C.1     1  LIG1       -0.1138
     29 H         -10.4015    2.4910    2.7171 H       1  LIG1        0.1232
     30 C          -8.8613    4.9858   -0.6316 C.ar    1  LIG1        0.0482
     31 C          -7.6187    4.8515    0.0074 C.ar    1  LIG1        0.0238
     32 C          -7.0822    5.9513    0.6574 C.ar    1  LIG1       -0.0333
     33 C          -7.7934    7.1523    0.6837 C.ar    1  LIG1        0.0513
     34 C          -9.0222    7.2013    0.0072 C.ar    1  LIG1        0.0884
     35 N          -9.5284    6.1389   -0.6163 N.ar    1  LIG1       -0.2499
     36 H          -6.1239    5.8793    1.1553 H       1  LIG1        0.0637
     37 C          -9.5005    3.8445   -1.3929 C.3     1  LIG1       -0.0217
     38 H          -9.9554    3.1406   -0.6935 H       1  LIG1        0.0293
     39 H          -8.7535    3.3145   -1.9847 H       1  LIG1        0.0293
     40 H         -10.2683    4.2603   -2.0410 H       1  LIG1        0.0293
     41 C          -7.2847    8.2779    1.4270 C.1     1  LIG1       -0.0675
     42 C          -6.8418    9.1921    2.0700 C.1     1  LIG1       -0.1138
     43 H          -6.4578   10.0069    2.6400 H       1  LIG1        0.1232
     44 C          -9.4295    9.6666   -0.5131 C.ar    1  LIG1        0.0475
     45 C          -9.8689    8.4334   -0.0087 C.ar    1  LIG1        0.0237
     46 C         -11.1733    8.3293    0.4649 C.ar    1  LIG1       -0.0339
     47 C         -11.9855    9.4592    0.4817 C.ar    1  LIG1        0.0434
     48 C         -11.4423   10.6555    0.0001 C.ar    1  LIG1        0.0433
     49 N         -10.2168   10.7475   -0.4914 N.ar    1  LIG1       -0.2583
     50 H         -11.5469    7.3758    0.8148 H       1  LIG1        0.0637
     51 H         -12.0405   11.5589    0.0052 H       1  LIG1        0.0842
     52 C          -8.0763    9.8728   -1.1600 C.3     1  LIG1       -0.0217
     53 H          -8.2271   10.4615   -2.0637 H       1  LIG1        0.0293
     54 H          -7.5986    8.9264   -1.4073 H       1  LIG1        0.0293
     55 H          -7.4314   10.4306   -0.4805 H       1  LIG1        0.0293
     56 C         -13.3402    9.4134    0.9728 C.1     1  LIG1       -0.0681
     57 C         -14.4692    9.3784    1.3821 C.1     1  LIG1       -0.1139
     58 H         -15.4703    9.3448    1.7441 H       1  LIG1        0.1232
@<TRIPOS>BOND
     1    11     9    1
     2    24    23    1
     3    25    23    1
     4    53    52    1
     5    40    37    1
     6    39    37    1
     7    23    26    1
     8    23    16    1
     9    54    52    1
    10    37    38    1
    11    37    30    1
    12     9    10    1
    13     9    12    1
    14     9     1    1
    15    52    44    1
    16    52    55    1
    17    16    21   ar
    18    16    17   ar
    19     1     6   ar
    20     1     2   ar
    21    21    20   ar
    22     6     5   ar
    23    30    35   ar
    24    30    31   ar
    25    35    34   ar
    26    44    49   ar
    27    44    45   ar
    28    49    48   ar
    29     8     2    1
    30     2     3   ar
    31     5    17    1
    32     5     4   ar
    33    17    18   ar
    34    20    31    1
    35    20    19   ar
    36    45    34    1
    37    45    46   ar
    38    48    51    1
    39    48    47   ar
    40    34    33   ar
    41    31    32   ar
    42     3     4   ar
    43     3     7    1
    44     4    13    1
    45    46    47   ar
    46    46    50    1
    47    47    56    1
    48    18    19   ar
    49    18    22    1
    50    32    33   ar
    51    32    36    1
    52    33    41    1
    53    19    27    1
    54    56    57    3
    55    13    14    3
    56    57    58    1
    57    41    42    3
    58    27    28    3
    59    14    15    1
    60    42    43    1
    61    28    29    1
