@<TRIPOS>MOLECULE
mol_data/opt/m06hf/geoms/mol2/6ie6ie6ie.out
 44 46 0 0 0
SMALL
GASTEIGER

@<TRIPOS>ATOM
      1 C          -4.1910   -1.8779   -1.1337 C.ar    1  LIG1        0.0390
      2 C          -3.0503   -2.1311   -0.3687 C.ar    1  LIG1       -0.0395
      3 C          -2.6666   -1.2026    0.5852 C.ar    1  LIG1       -0.0426
      4 C          -3.4210   -0.0390    0.7528 C.ar    1  LIG1        0.0507
      5 C          -4.5444    0.1416   -0.0739 C.ar    1  LIG1        0.0883
      6 N          -4.9063   -0.7639   -0.9790 N.ar    1  LIG1       -0.2506
      7 H          -1.7982   -1.3638    1.2099 H       1  LIG1        0.0631
      8 H          -2.4852   -3.0406   -0.5186 H       1  LIG1        0.0636
      9 C          -4.6912   -2.8477   -2.1823 C.3     1  LIG1       -0.0223
     10 H          -4.0353   -3.7129   -2.2630 H       1  LIG1        0.0292
     11 H          -4.7444   -2.3379   -3.1441 H       1  LIG1        0.0292
     12 H          -5.6959   -3.1762   -1.9138 H       1  LIG1        0.0292
     13 C          -3.0500    0.9150    1.7691 C.1     1  LIG1       -0.0675
     14 C          -2.7142    1.6889    2.6250 C.1     1  LIG1       -0.1138
     15 H          -2.4271    2.3825    3.3817 H       1  LIG1        0.1232
     16 C          -6.7977    1.2705    0.1075 C.ar    1  LIG1        0.0482
     17 C          -5.3970    1.3649    0.0120 C.ar    1  LIG1        0.0238
     18 C          -4.8226    2.6263   -0.0220 C.ar    1  LIG1       -0.0333
     19 C          -5.6332    3.7629    0.0230 C.ar    1  LIG1        0.0513
     20 C          -7.0212    3.5754    0.0971 C.ar    1  LIG1        0.0884
     21 N          -7.5619    2.3588    0.1463 N.ar    1  LIG1       -0.2499
     22 H          -3.7485    2.7428   -0.0832 H       1  LIG1        0.0637
     23 C          -7.5262   -0.0547    0.1849 C.3     1  LIG1       -0.0217
     24 H          -7.0226   -0.7312    0.8766 H       1  LIG1        0.0293
     25 H          -7.5391   -0.5254   -0.7980 H       1  LIG1        0.0293
     26 H          -8.5419    0.1436    0.5198 H       1  LIG1        0.0293
     27 C          -5.0260    5.0713    0.0179 C.1     1  LIG1       -0.0675
     28 C          -4.4879    6.1456    0.0159 C.1     1  LIG1       -0.1138
     29 H          -4.0204    7.1029    0.0160 H       1  LIG1        0.1232
     30 C          -8.9991    4.8003    1.0812 C.ar    1  LIG1        0.0475
     31 C          -7.9744    4.7249    0.1195 C.ar    1  LIG1        0.0237
     32 C          -7.8774    5.7277   -0.8367 C.ar    1  LIG1       -0.0339
     33 C          -8.7986    6.7750   -0.8218 C.ar    1  LIG1        0.0434
     34 C          -9.7809    6.7625    0.1698 C.ar    1  LIG1        0.0433
     35 N          -9.8719    5.8093    1.0889 N.ar    1  LIG1       -0.2583
     36 H          -7.1037    5.6984   -1.5927 H       1  LIG1        0.0637
     37 H         -10.5145    7.5581    0.2139 H       1  LIG1        0.0842
     38 C          -9.1786    3.7604    2.1671 C.3     1  LIG1       -0.0217
     39 H          -8.2188    3.4875    2.6072 H       1  LIG1        0.0293
     40 H          -9.6204    2.8595    1.7413 H       1  LIG1        0.0293
     41 H          -9.8374    4.1816    2.9227 H       1  LIG1        0.0293
     42 C          -8.7494    7.8375   -1.7952 C.1     1  LIG1       -0.0681
     43 C          -8.7128    8.7229   -2.6065 C.1     1  LIG1       -0.1139
     44 H          -8.6821    9.5069   -3.3270 H       1  LIG1        0.1232
@<TRIPOS>BOND
     1    44    43    1
     2    11     9    1
     3    43    42    3
     4    10     9    1
     5     9    12    1
     6     9     1    1
     7    42    33    1
     8    36    32    1
     9     1     6   ar
    10     1     2   ar
    11     6     5   ar
    12    32    33   ar
    13    32    31   ar
    14    33    34   ar
    15    25    23    1
    16     8     2    1
    17     2     3   ar
    18    22    18    1
    19     5    17    1
    20     5     4   ar
    21    18    17   ar
    22    18    19   ar
    23    17    16   ar
    24    28    29    1
    25    28    27    3
    26    27    19    1
    27    19    20   ar
    28    20    31    1
    29    20    21   ar
    30    16    21   ar
    31    16    23    1
    32    31    30   ar
    33    34    37    1
    34    34    35   ar
    35    23    26    1
    36    23    24    1
    37     3     4   ar
    38     3     7    1
    39     4    13    1
    40    30    35   ar
    41    30    38    1
    42    40    38    1
    43    13    14    3
    44    38    39    1
    45    38    41    1
    46    14    15    1
