@<TRIPOS>MOLECULE
mol_data/opt/m06hf/geoms/mol2/6ie6ie6ie-6ie-.out
 58 61 0 0 0
SMALL
GASTEIGER

@<TRIPOS>ATOM
      1 C          -4.3653   -2.2194    0.0857 C.ar    1  LIG1        0.0390
      2 C          -2.9712   -2.2110   -0.0008 C.ar    1  LIG1       -0.0395
      3 C          -2.3159   -0.9940   -0.0961 C.ar    1  LIG1       -0.0426
      4 C          -3.0606    0.1877   -0.1097 C.ar    1  LIG1        0.0507
      5 C          -4.4615    0.0830   -0.0332 C.ar    1  LIG1        0.0883
      6 N          -5.0761   -1.0921    0.0655 N.ar    1  LIG1       -0.2506
      7 H          -1.2368   -0.9388   -0.1523 H       1  LIG1        0.0631
      8 H          -2.4196   -3.1407    0.0138 H       1  LIG1        0.0636
      9 C          -5.1589   -3.5027    0.2042 C.3     1  LIG1       -0.0223
     10 H          -4.5012   -4.3680    0.2671 H       1  LIG1        0.0292
     11 H          -5.8102   -3.6025   -0.6643 H       1  LIG1        0.0292
     12 H          -5.7838   -3.4532    1.0963 H       1  LIG1        0.0292
     13 C          -2.3866    1.4612   -0.1739 C.1     1  LIG1       -0.0675
     14 C          -1.7958    2.5063   -0.2279 C.1     1  LIG1       -0.1138
     15 H          -1.2830    3.4393   -0.2728 H       1  LIG1        0.1232
     16 C          -6.3588    1.4774    0.8885 C.ar    1  LIG1        0.0482
     17 C          -5.3400    1.2913   -0.0639 C.ar    1  LIG1        0.0238
     18 C          -5.1883    2.2392   -1.0655 C.ar    1  LIG1       -0.0333
     19 C          -6.0276    3.3541   -1.0973 C.ar    1  LIG1        0.0513
     20 C          -6.9876    3.4788   -0.0836 C.ar    1  LIG1        0.0884
     21 N          -7.1455    2.5524    0.8594 N.ar    1  LIG1       -0.2499
     22 H          -4.4352    2.1162   -1.8330 H       1  LIG1        0.0637
     23 C          -6.6196    0.4941    2.0100 C.3     1  LIG1       -0.0217
     24 H          -5.6875    0.2326    2.5133 H       1  LIG1        0.0293
     25 H          -7.0500   -0.4211    1.6046 H       1  LIG1        0.0293
     26 H          -7.3076    0.9626    2.7092 H       1  LIG1        0.0293
     27 C          -5.9273    4.3103   -2.1714 C.1     1  LIG1       -0.0675
     28 C          -5.8350    5.0849   -3.0861 C.1     1  LIG1       -0.1138
     29 H          -5.7649    5.7731   -3.8971 H       1  LIG1        0.1232
     30 C          -7.4737    5.9656    0.1395 C.ar    1  LIG1        0.0482
     31 C          -7.9204    4.6446   -0.0228 C.ar    1  LIG1        0.0238
     32 C          -9.2871    4.4088   -0.0680 C.ar    1  LIG1       -0.0333
     33 C         -10.1784    5.4804   -0.0172 C.ar    1  LIG1        0.0513
     34 C          -9.6411    6.7742    0.0920 C.ar    1  LIG1        0.0884
     35 N          -8.3314    6.9842    0.1856 N.ar    1  LIG1       -0.2499
     36 H          -9.6607    3.3956   -0.1356 H       1  LIG1        0.0637
     37 C          -6.0142    6.3294    0.3109 C.3     1  LIG1       -0.0217
     38 H          -5.9608    7.2002    0.9621 H       1  LIG1        0.0293
     39 H          -5.5841    6.5816   -0.6591 H       1  LIG1        0.0293
     40 H          -5.4506    5.5024    0.7414 H       1  LIG1        0.0293
     41 C         -11.5998    5.2380   -0.0470 C.1     1  LIG1       -0.0675
     42 C         -12.7792    5.0091   -0.0719 C.1     1  LIG1       -0.1138
     43 H         -13.8267    4.8152   -0.0896 H       1  LIG1        0.1232
     44 C         -10.3663    8.9566    1.1344 C.ar    1  LIG1        0.0475
     45 C         -10.5114    7.9880    0.1237 C.ar    1  LIG1        0.0237
     46 C         -11.4641    8.1890   -0.8663 C.ar    1  LIG1       -0.0339
     47 C         -12.2415    9.3472   -0.8382 C.ar    1  LIG1        0.0434
     48 C         -12.0219   10.2524    0.2015 C.ar    1  LIG1        0.0433
     49 N         -11.1192   10.0578    1.1548 N.ar    1  LIG1       -0.2583
     50 H         -11.6017    7.4628   -1.6568 H       1  LIG1        0.0637
     51 H         -12.6056   11.1635    0.2571 H       1  LIG1        0.0842
     52 C          -9.3669    8.8123    2.2627 C.3     1  LIG1       -0.0217
     53 H          -9.6319    9.5313    3.0342 H       1  LIG1        0.0293
     54 H          -8.3618    9.0111    1.8904 H       1  LIG1        0.0293
     55 H          -9.3818    7.7985    2.6648 H       1  LIG1        0.0293
     56 C         -13.2386    9.6117   -1.8454 C.1     1  LIG1       -0.0681
     57 C         -14.0678    9.8319   -2.6866 C.1     1  LIG1       -0.1139
     58 H         -14.8013   10.0277   -3.4338 H       1  LIG1        0.1232
@<TRIPOS>BOND
     1    29    28    1
     2    58    57    1
     3    28    27    3
     4    57    56    3
     5    27    19    1
     6    56    47    1
     7    22    18    1
     8    50    46    1
     9    19    18   ar
    10    19    20   ar
    11    18    17   ar
    12    46    47   ar
    13    46    45   ar
    14    47    48   ar
    15    11     9    1
    16    39    37    1
    17    15    14    1
    18    14    13    3
    19    13     4    1
    20     7     3    1
    21    36    32    1
    22     4     3   ar
    23     4     5   ar
    24     3     2   ar
    25    43    42    1
    26    20    31    1
    27    20    21   ar
    28    42    41    3
    29    32    31   ar
    30    32    33   ar
    31    17     5    1
    32    17    16   ar
    33    41    33    1
    34     5     6   ar
    35    31    30   ar
    36    33    34   ar
    37     2     8    1
    38     2     1   ar
    39     6     1   ar
    40     1     9    1
    41    34    45    1
    42    34    35   ar
    43    45    44   ar
    44    30    35   ar
    45    30    37    1
    46    48    51    1
    47    48    49   ar
    48     9    10    1
    49     9    12    1
    50    37    40    1
    51    37    38    1
    52    21    16   ar
    53    16    23    1
    54    44    49   ar
    55    44    52    1
    56    25    23    1
    57    54    52    1
    58    23    24    1
    59    23    26    1
    60    52    55    1
    61    52    53    1
