@<TRIPOS>MOLECULE
mol_data/opt/m06hf/geoms/mol2/6ie6ie6ie6ie.out
 58 61 0 0 0
SMALL
GASTEIGER

@<TRIPOS>ATOM
      1 C          -3.7352   -1.6141   -1.5539 C.ar    1  LIG1        0.0390
      2 C          -2.8807   -2.1094   -0.5666 C.ar    1  LIG1       -0.0395
      3 C          -2.8440   -1.4751    0.6647 C.ar    1  LIG1       -0.0426
      4 C          -3.6509   -0.3564    0.8845 C.ar    1  LIG1        0.0507
      5 C          -4.4675    0.0832   -0.1731 C.ar    1  LIG1        0.0883
      6 N          -4.5007   -0.5427   -1.3462 N.ar    1  LIG1       -0.2506
      7 H          -2.2083   -1.8339    1.4630 H       1  LIG1        0.0631
      8 H          -2.2670   -2.9776   -0.7633 H       1  LIG1        0.0636
      9 C          -3.8484   -2.2545   -2.9205 C.3     1  LIG1       -0.0223
     10 H          -3.2118   -3.1342   -2.9979 H       1  LIG1        0.0292
     11 H          -3.5611   -1.5278   -3.6804 H       1  LIG1        0.0292
     12 H          -4.8865   -2.5388   -3.0949 H       1  LIG1        0.0292
     13 C          -3.6503    0.2900    2.1738 C.1     1  LIG1       -0.0675
     14 C          -3.6344    0.8070    3.2585 C.1     1  LIG1       -0.1138
     15 H          -3.6333    1.2719    4.2175 H       1  LIG1        0.1232
     16 C          -6.7046    1.2342   -0.4023 C.ar    1  LIG1        0.0482
     17 C          -5.3455    1.2847   -0.0425 C.ar    1  LIG1        0.0238
     18 C          -4.8295    2.4865    0.4177 C.ar    1  LIG1       -0.0333
     19 C          -5.6518    3.6126    0.4998 C.ar    1  LIG1        0.0513
     20 C          -6.9891    3.4768    0.0981 C.ar    1  LIG1        0.0884
     21 N          -7.4797    2.3127   -0.3241 N.ar    1  LIG1       -0.2499
     22 H          -3.7924    2.5634    0.7175 H       1  LIG1        0.0637
     23 C          -7.3763   -0.0335   -0.8861 C.3     1  LIG1       -0.0217
     24 H          -7.0719   -0.8870   -0.2797 H       1  LIG1        0.0293
     25 H          -7.0846   -0.2317   -1.9175 H       1  LIG1        0.0293
     26 H          -8.4522    0.1140   -0.8232 H       1  LIG1        0.0293
     27 C          -5.1167    4.8514    1.0094 C.1     1  LIG1       -0.0675
     28 C          -4.6452    5.8700    1.4393 C.1     1  LIG1       -0.1138
     29 H          -4.2394    6.7792    1.8195 H       1  LIG1        0.1232
     30 C          -9.2181    4.5097    0.6959 C.ar    1  LIG1        0.0482
     31 C          -7.9410    4.6273    0.1161 C.ar    1  LIG1        0.0238
     32 C          -7.5884    5.8381   -0.4607 C.ar    1  LIG1       -0.0333
     33 C          -8.4956    6.9001   -0.4629 C.ar    1  LIG1        0.0513
     34 C          -9.7520    6.6899    0.1251 C.ar    1  LIG1        0.0884
     35 N         -10.0763    5.5263    0.6866 N.ar    1  LIG1       -0.2499
     36 H          -6.6134    5.9723   -0.9103 H       1  LIG1        0.0637
     37 C          -9.6963    3.2429    1.3734 C.3     1  LIG1       -0.0217
     38 H          -8.9294    2.8521    2.0434 H       1  LIG1        0.0293
     39 H          -9.9042    2.4816    0.6219 H       1  LIG1        0.0293
     40 H         -10.5999    3.4840    1.9288 H       1  LIG1        0.0293
     41 C          -8.1112    8.1660   -1.0378 C.1     1  LIG1       -0.0675
     42 C          -7.7604    9.2072   -1.5242 C.1     1  LIG1       -0.1138
     43 H          -7.4586   10.1346   -1.9530 H       1  LIG1        0.1232
     44 C         -11.4677    8.0811    1.3493 C.ar    1  LIG1        0.0475
     45 C         -10.8004    7.7537    0.1538 C.ar    1  LIG1        0.0237
     46 C         -11.1523    8.4189   -1.0133 C.ar    1  LIG1       -0.0339
     47 C         -12.1576    9.3858   -0.9702 C.ar    1  LIG1        0.0434
     48 C         -12.7630    9.6397    0.2615 C.ar    1  LIG1        0.0433
     49 N         -12.4237    9.0108    1.3800 N.ar    1  LIG1       -0.2583
     50 H         -10.6615    8.1899   -1.9504 H       1  LIG1        0.0637
     51 H         -13.5480   10.3824    0.3343 H       1  LIG1        0.0842
     52 C         -11.1437    7.4181    2.6716 C.3     1  LIG1       -0.0217
     53 H         -10.0649    7.3730    2.8269 H       1  LIG1        0.0293
     54 H         -11.5258    6.3973    2.6729 H       1  LIG1        0.0293
     55 H         -11.6167    8.0010    3.4583 H       1  LIG1        0.0293
     56 C         -12.5680   10.1013   -2.1525 C.1     1  LIG1       -0.0681
     57 C         -12.9106   10.6971   -3.1379 C.1     1  LIG1       -0.1139
     58 H         -13.2160   11.2230   -4.0123 H       1  LIG1        0.1232
@<TRIPOS>BOND
     1    58    57    1
     2    11     9    1
     3    57    56    3
     4    12     9    1
     5    10     9    1
     6     9     1    1
     7    56    47    1
     8    43    42    1
     9    50    46    1
    10    25    23    1
    11     1     6   ar
    12     1     2   ar
    13    42    41    3
    14     6     5   ar
    15    41    33    1
    16    46    47   ar
    17    46    45   ar
    18    47    48   ar
    19    36    32    1
    20    23    26    1
    21    23    16    1
    22    23    24    1
    23     8     2    1
    24     2     3   ar
    25    33    32   ar
    26    33    34   ar
    27    32    31   ar
    28    16    21   ar
    29    16    17   ar
    30    21    20   ar
    31     5    17    1
    32     5     4   ar
    33    17    18   ar
    34    20    31    1
    35    20    19   ar
    36    31    30   ar
    37    34    45    1
    38    34    35   ar
    39    45    44   ar
    40    48    51    1
    41    48    49   ar
    42    18    19   ar
    43    18    22    1
    44    19    27    1
    45    39    37    1
    46     3     4   ar
    47     3     7    1
    48    35    30   ar
    49    30    37    1
    50     4    13    1
    51    27    28    3
    52    44    49   ar
    53    44    52    1
    54    37    40    1
    55    37    38    1
    56    28    29    1
    57    13    14    3
    58    52    54    1
    59    52    53    1
    60    52    55    1
    61    14    15    1
