@<TRIPOS>MOLECULE
mol_data/opt/m06hf/geoms/mol2/6if13aa-12ia-13il-.out
 48 51 0 0 0
SMALL
GASTEIGER

@<TRIPOS>ATOM
      1 C          -4.6140   -1.9216    0.9217 C.ar    1  LIG1        0.0392
      2 C          -3.3132   -2.1758    0.4808 C.ar    1  LIG1       -0.0372
      3 C          -2.6457   -1.2119   -0.2636 C.ar    1  LIG1       -0.0163
      4 C          -3.2818   -0.0066   -0.5218 C.ar    1  LIG1        0.1442
      5 C          -4.5636    0.1938    0.0061 C.ar    1  LIG1        0.1286
      6 N          -5.2110   -0.7566    0.6797 N.ar    1  LIG1       -0.2467
      7 H          -1.6524   -1.3739   -0.6603 H       1  LIG1        0.0655
      8 H          -2.8431   -3.1241    0.7021 H       1  LIG1        0.0636
      9 C          -5.4178   -2.9468    1.6952 C.3     1  LIG1       -0.0223
     10 H          -4.8178   -3.8297    1.9100 H       1  LIG1        0.0292
     11 H          -6.2913   -3.2417    1.1125 H       1  LIG1        0.0292
     12 H          -5.7622   -2.5064    2.6305 H       1  LIG1        0.0292
     13 O          -2.6591    0.9328   -1.2806 O.3     1  LIG1       -0.5046
     14 H          -3.3277    1.5001   -1.6894 H       1  LIG1        0.2922
     15 C          -5.2889    1.4590   -0.2018 C.ar    1  LIG1        0.0691
     16 C          -4.8952    2.7547   -0.5089 C.ar    1  LIG1       -0.0341
     17 C          -6.0696    3.5472   -0.5577 C.ar    1  LIG1       -0.0327
     18 C          -7.1359    2.7146   -0.2660 C.ar    1  LIG1        0.0828
     19 N          -6.6401    1.4645   -0.0571 N.ar    1  LIG1       -0.3505
     20 H          -7.1580    0.6462    0.2329 H       1  LIG1        0.1660
     21 H          -3.8816    3.1077   -0.6115 H       1  LIG1        0.0639
     22 H          -6.1365    4.5946   -0.7972 H       1  LIG1        0.0640
     23 C          -8.5627    2.9819   -0.1628 C.ar    1  LIG1        0.1547
     24 C          -9.2798    4.1093    0.0934 C.ar    1  LIG1       -0.0026
     25 C         -10.6610    3.7037    0.0584 C.ar    1  LIG1       -0.0108
     26 C         -10.6693    2.3677   -0.1962 C.ar    1  LIG1        0.1524
     27 O          -9.3962    1.9192   -0.3333 O.2     1  LIG1       -0.4516
     28 C          -8.7413    5.4882    0.3752 C.3     1  LIG1       -0.0360
     29 H          -9.4324    6.0288    1.0212 H       1  LIG1        0.0279
     30 H          -8.6176    6.0548   -0.5497 H       1  LIG1        0.0279
     31 H          -7.7749    5.4162    0.8752 H       1  LIG1        0.0279
     32 H         -11.5225    4.3338    0.1994 H       1  LIG1        0.0659
     33 C         -11.7189    1.3743   -0.3552 C.ar    1  LIG1        0.0886
     34 C         -13.0681    1.4397   -0.0706 C.ar    1  LIG1        0.0195
     35 C         -13.5978    0.1716   -0.4340 C.ar    1  LIG1        0.1409
     36 C         -12.5741   -0.6172   -0.9152 C.ar    1  LIG1        0.0447
     37 N         -11.4348    0.1395   -0.8579 N.ar    1  LIG1       -0.3550
     38 H         -10.5160   -0.1471   -1.1527 H       1  LIG1        0.1655
     39 H         -12.5619   -1.6271   -1.2832 H       1  LIG1        0.0844
     40 C         -13.8488    2.5827    0.5225 C.3     1  LIG1       -0.0341
     41 H         -14.8245    2.2170    0.8394 H       1  LIG1        0.0279
     42 H         -13.9999    3.3799   -0.2086 H       1  LIG1        0.0279
     43 H         -13.3265    2.9953    1.3877 H       1  LIG1        0.0279
     44 O         -14.9144   -0.1313   -0.2828 O.3     1  LIG1       -0.4933
     45 C         -15.2649   -1.4498   -0.6453 C.3     1  LIG1        0.0789
     46 H         -16.3323   -1.5491   -0.4668 H       1  LIG1        0.0660
     47 H         -15.0472   -1.6256   -1.7031 H       1  LIG1        0.0660
     48 H         -14.7159   -2.1717   -0.0332 H       1  LIG1        0.0660
@<TRIPOS>BOND
     1    47    45    1
     2    14    13    1
     3    39    36    1
     4    13     4    1
     5    38    37    1
     6    36    37   ar
     7    36    35   ar
     8    37    33   ar
     9    22    17    1
    10     7     3    1
    11    45    46    1
    12    45    44    1
    13    45    48    1
    14    21    16    1
    15    17    16   ar
    16    17    18   ar
    17    30    28    1
    18     4     3   ar
    19     4     5   ar
    20    16    15   ar
    21    35    44    1
    22    35    34   ar
    23    33    26    1
    24    33    34   ar
    25    27    26   ar
    26    27    23   ar
    27    18    23    1
    28    18    19   ar
    29     3     2   ar
    30    42    40    1
    31    15    19   ar
    32    15     5    1
    33    26    25   ar
    34    23    24   ar
    35    34    40    1
    36    19    20    1
    37     5     6   ar
    38    25    24   ar
    39    25    32    1
    40    24    28    1
    41    28    31    1
    42    28    29    1
    43     2     8    1
    44     2     1   ar
    45    40    41    1
    46    40    43    1
    47     6     1   ar
    48     1     9    1
    49    11     9    1
    50     9    10    1
    51     9    12    1
