@<TRIPOS>MOLECULE
mol_data/opt/m06hf/geoms/mol2/6if13di-12ii-6fi.out
 53 56 0 0 0
SMALL
GASTEIGER

@<TRIPOS>ATOM
      1 C          -4.5533   -2.0010   -0.7134 C.ar    1  LIG1        0.0392
      2 C          -3.1940   -2.0745   -1.0498 C.ar    1  LIG1       -0.0372
      3 C          -2.4479   -0.9130   -1.0716 C.ar    1  LIG1       -0.0163
      4 C          -3.0449    0.3077   -0.7461 C.ar    1  LIG1        0.1442
      5 C          -4.3975    0.2877   -0.3940 C.ar    1  LIG1        0.1298
      6 N          -5.1157   -0.8446   -0.3985 N.ar    1  LIG1       -0.2467
      7 H          -1.4018   -0.9023   -1.3478 H       1  LIG1        0.0655
      8 H          -2.7483   -3.0287   -1.2974 H       1  LIG1        0.0636
      9 C          -5.4371   -3.2318   -0.7191 C.3     1  LIG1       -0.0223
     10 H          -4.9428   -4.0586   -0.2083 H       1  LIG1        0.0292
     11 H          -5.6487   -3.5359   -1.7458 H       1  LIG1        0.0292
     12 H          -6.3716   -2.9972   -0.2150 H       1  LIG1        0.0292
     13 O          -2.2946    1.4290   -0.8986 O.3     1  LIG1       -0.5046
     14 H          -2.3008    2.0151   -0.1294 H       1  LIG1        0.2922
     15 C          -5.2063    1.4832   -0.0601 C.ar    1  LIG1        0.0869
     16 C          -4.9534    2.7550    0.4455 C.ar    1  LIG1        0.0822
     17 C          -6.1922    3.4485    0.5813 C.ar    1  LIG1       -0.0041
     18 C          -7.1572    2.5678    0.1402 C.ar    1  LIG1        0.0871
     19 N          -6.5413    1.4026   -0.2273 N.ar    1  LIG1       -0.3492
     20 H          -6.9856    0.5441   -0.5307 H       1  LIG1        0.1661
     21 N          -2.6584    3.6153    1.2508 N.1     1  LIG1       -0.1908
     22 C          -3.6875    3.2477    0.8884 C.1     1  LIG1        0.1016
     23 C          -6.3857    4.8224    1.1676 C.3     1  LIG1       -0.0364
     24 H          -7.4288    4.9542    1.4545 H       1  LIG1        0.0279
     25 H          -6.1122    5.5991    0.4513 H       1  LIG1        0.0279
     26 H          -5.7582    4.9358    2.0521 H       1  LIG1        0.0279
     27 C          -8.6045    2.7225    0.0387 C.ar    1  LIG1        0.1552
     28 C          -9.4004    3.7301   -0.4018 C.ar    1  LIG1        0.0003
     29 C         -10.7615    3.2663   -0.2351 C.ar    1  LIG1       -0.0010
     30 C         -10.6734    2.0012    0.2552 C.ar    1  LIG1        0.1440
     31 O          -9.3633    1.6623    0.4336 O.2     1  LIG1       -0.4526
     32 C          -8.9739    5.0455   -0.9982 C.3     1  LIG1       -0.0358
     33 H          -9.1394    5.8668   -0.2978 H       1  LIG1        0.0279
     34 H          -9.5501    5.2440   -1.9027 H       1  LIG1        0.0279
     35 H          -7.9158    5.0094   -1.2567 H       1  LIG1        0.0279
     36 C         -12.0022    4.0695   -0.5303 C.3     1  LIG1       -0.0358
     37 H         -12.8532    3.6684    0.0193 H       1  LIG1        0.0279
     38 H         -12.2329    4.0581   -1.5980 H       1  LIG1        0.0279
     39 H         -11.8479    5.1052   -0.2257 H       1  LIG1        0.0279
     40 C         -11.5286    0.1570    1.7453 C.ar    1  LIG1        0.2232
     41 C         -11.6831    0.9947    0.6143 C.ar    1  LIG1        0.0791
     42 C         -12.8460    0.8541   -0.1329 C.ar    1  LIG1       -0.0416
     43 C         -13.8336   -0.0531    0.2500 C.ar    1  LIG1       -0.0314
     44 C         -13.5711   -0.7965    1.3957 C.ar    1  LIG1        0.0343
     45 N         -12.4542   -0.7036    2.1161 N.ar    1  LIG1       -0.2206
     46 H         -12.9717    1.4505   -1.0302 H       1  LIG1        0.0629
     47 H         -14.3002   -1.5164    1.7527 H       1  LIG1        0.0833
     48 O         -10.4305    0.1952    2.5184 O.3     1  LIG1       -0.4919
     49 H          -9.7402    0.7332    2.1109 H       1  LIG1        0.2937
     50 C         -15.1091   -0.2318   -0.5487 C.3     1  LIG1       -0.0383
     51 H         -15.7827   -0.9178   -0.0361 H       1  LIG1        0.0278
     52 H         -14.8879   -0.6385   -1.5367 H       1  LIG1        0.0278
     53 H         -15.6195    0.7237   -0.6752 H       1  LIG1        0.0278
@<TRIPOS>BOND
     1    34    32    1
     2    11     9    1
     3    38    36    1
     4    52    50    1
     5     7     3    1
     6     8     2    1
     7    35    32    1
     8     3     2   ar
     9     3     4   ar
    10     2     1   ar
    11    46    42    1
    12    32    28    1
    13    32    33    1
    14    13     4    1
    15    13    14    1
    16     4     5   ar
    17     9     1    1
    18     9    12    1
    19     9    10    1
    20     1     6   ar
    21    53    50    1
    22    50    51    1
    23    50    43    1
    24    20    19    1
    25    36    29    1
    26    36    39    1
    27    36    37    1
    28    28    29   ar
    29    28    27   ar
    30     6     5   ar
    31     5    15    1
    32    29    30   ar
    33    19    15   ar
    34    19    18   ar
    35    42    43   ar
    36    42    41   ar
    37    15    16   ar
    38    27    18    1
    39    27    31   ar
    40    18    17   ar
    41    43    44   ar
    42    30    31   ar
    43    30    41    1
    44    16    17   ar
    45    16    22    1
    46    25    23    1
    47    17    23    1
    48    41    40   ar
    49    22    21    3
    50    23    24    1
    51    23    26    1
    52    44    47    1
    53    44    45   ar
    54    40    45   ar
    55    40    48    1
    56    49    48    1
