@<TRIPOS>MOLECULE
mol_data/opt/m06hf/geoms/mol2/6if12ff-12de12dl.out
 46 49 0 0 0
SMALL
GASTEIGER

@<TRIPOS>ATOM
      1 C          -4.0710   -2.0472   -0.0008 C.ar    1  LIG1        0.0393
      2 C          -2.7181   -1.8921   -0.3448 C.ar    1  LIG1       -0.0372
      3 C          -2.2025   -0.6226   -0.5036 C.ar    1  LIG1       -0.0162
      4 C          -3.0349    0.4861   -0.3240 C.ar    1  LIG1        0.1459
      5 C          -4.3686    0.2364    0.0185 C.ar    1  LIG1        0.1512
      6 N          -4.8584   -0.9991    0.1738 N.ar    1  LIG1       -0.2450
      7 H          -1.1709   -0.4440   -0.7754 H       1  LIG1        0.0655
      8 H          -2.0941   -2.7658   -0.4824 H       1  LIG1        0.0636
      9 C          -4.6829   -3.4206    0.1885 C.3     1  LIG1       -0.0223
     10 H          -4.2143   -3.9315    1.0314 H       1  LIG1        0.0292
     11 H          -4.5407   -4.0283   -0.7065 H       1  LIG1        0.0292
     12 H          -5.7455   -3.3003    0.3842 H       1  LIG1        0.0292
     13 O          -2.5072    1.7080   -0.5532 O.3     1  LIG1       -0.5045
     14 H          -2.9369    2.4145   -0.0418 H       1  LIG1        0.2922
     15 C          -5.3405    1.3301    0.1947 C.ar    1  LIG1        0.2025
     16 C          -5.2246    2.6372    0.5599 C.ar    1  LIG1        0.2076
     17 C          -6.5292    3.2105    0.5335 C.ar    1  LIG1        0.2091
     18 C          -7.3627    2.1899    0.1595 C.ar    1  LIG1        0.2169
     19 O          -6.6424    1.0662   -0.0478 O.2     1  LIG1       -0.4424
     20 O          -4.0975    3.3018    0.9348 O.3     1  LIG1       -0.5008
     21 H          -4.3098    4.2386    1.0524 H       1  LIG1        0.2924
     22 O          -6.7150    4.4897    0.9219 O.3     1  LIG1       -0.5007
     23 H          -7.4075    4.9480    0.4220 H       1  LIG1        0.2924
     24 C          -8.7928    2.1177   -0.0310 C.ar    1  LIG1        0.1930
     25 C          -9.7246    3.0820   -0.3079 C.ar    1  LIG1        0.1167
     26 C         -11.0050    2.4228   -0.3615 C.ar    1  LIG1        0.0916
     27 C         -10.7287    1.1096   -0.1116 C.ar    1  LIG1        0.1887
     28 O          -9.4025    0.9334    0.0852 O.2     1  LIG1       -0.4458
     29 N          -9.0744    5.5355   -0.7375 N.1     1  LIG1       -0.1907
     30 C          -9.4124    4.4517   -0.5554 C.1     1  LIG1        0.1043
     31 C         -12.2620    3.0163   -0.6783 C.1     1  LIG1       -0.0644
     32 C         -13.3187    3.5172   -0.9470 C.1     1  LIG1       -0.1138
     33 H         -14.2660    3.9529   -1.1687 H       1  LIG1        0.1232
     34 C         -11.5699   -0.0728   -0.0455 C.ar    1  LIG1        0.1920
     35 C         -12.8713   -0.2688    0.3258 C.ar    1  LIG1        0.1420
     36 C         -13.1180   -1.6821    0.1431 C.ar    1  LIG1        0.1757
     37 C         -11.9549   -2.2077   -0.3121 C.ar    1  LIG1        0.1356
     38 O         -11.0216   -1.2343   -0.4182 O.2     1  LIG1       -0.4547
     39 H         -11.6603   -3.2094   -0.5659 H       1  LIG1        0.1068
     40 N         -14.5643    1.3949    1.3322 N.1     1  LIG1       -0.1906
     41 C         -13.7899    0.6765    0.8824 C.1     1  LIG1        0.1068
     42 O         -14.2571   -2.3488    0.4218 O.3     1  LIG1       -0.4907
     43 C         -15.3831   -1.9574   -0.3718 C.3     1  LIG1        0.0790
     44 H         -16.2006   -2.6019   -0.0625 H       1  LIG1        0.0660
     45 H         -15.6400   -0.9149   -0.1824 H       1  LIG1        0.0660
     46 H         -15.1584   -2.1075   -1.4287 H       1  LIG1        0.0660
@<TRIPOS>BOND
     1    46    43    1
     2    33    32    1
     3    32    31    3
     4     7     3    1
     5    29    30    3
     6    11     9    1
     7    31    26    1
     8    39    37    1
     9    30    25    1
    10    13     4    1
    11    13    14    1
    12     3     2   ar
    13     3     4   ar
    14     8     2    1
    15    38    37   ar
    16    38    34   ar
    17    43    45    1
    18    43    44    1
    19    43    42    1
    20    26    25   ar
    21    26    27   ar
    22     2     1   ar
    23     4     5   ar
    24    37    36   ar
    25    25    24   ar
    26    27    34    1
    27    27    28   ar
    28    19    18   ar
    29    19    15   ar
    30    34    35   ar
    31    24    28   ar
    32    24    18    1
    33     1     6   ar
    34     1     9    1
    35     5     6   ar
    36     5    15    1
    37    36    35   ar
    38    36    42    1
    39    18    17   ar
    40     9    12    1
    41     9    10    1
    42    15    16   ar
    43    35    41    1
    44    23    22    1
    45    17    16   ar
    46    17    22    1
    47    16    20    1
    48    41    40    3
    49    20    21    1
