@<TRIPOS>MOLECULE
mol_data/opt/m06hf/geoms/mol2/6if4ai-6aa-4eh-.out
 51 54 0 0 0
SMALL
GASTEIGER

@<TRIPOS>ATOM
      1 C          -4.1073   -2.1118    0.5562 C.ar    1  LIG1        0.0392
      2 C          -2.9702   -2.2413   -0.2453 C.ar    1  LIG1       -0.0372
      3 C          -2.6131   -1.1995   -1.0879 C.ar    1  LIG1       -0.0164
      4 C          -3.3859   -0.0450   -1.0917 C.ar    1  LIG1        0.1427
      5 C          -4.4867    0.0266   -0.2255 C.ar    1  LIG1        0.1125
      6 N          -4.8362   -0.9982    0.5495 N.ar    1  LIG1       -0.2482
      7 H          -1.7611   -1.2585   -1.7520 H       1  LIG1        0.0655
      8 H          -2.3872   -3.1521   -0.2171 H       1  LIG1        0.0636
      9 C          -4.5773   -3.2207    1.4757 C.3     1  LIG1       -0.0223
     10 H          -3.9053   -4.0766    1.4291 H       1  LIG1        0.0292
     11 H          -5.5799   -3.5338    1.1832 H       1  LIG1        0.0292
     12 H          -4.6202   -2.8489    2.4991 H       1  LIG1        0.0292
     13 O          -3.0437    0.9569   -1.9455 O.3     1  LIG1       -0.5046
     14 H          -3.7842    1.5694   -2.0453 H       1  LIG1        0.2922
     15 C          -4.7967    2.5338   -0.1744 C.ar    1  LIG1       -0.0519
     16 C          -5.6370    3.6412   -0.1182 C.ar    1  LIG1       -0.0531
     17 C          -5.3461    1.2487   -0.1690 C.ar    1  LIG1        0.0042
     18 C          -7.0226    3.4900   -0.0516 C.ar    1  LIG1       -0.0135
     19 H          -5.2171    4.6397   -0.1297 H       1  LIG1        0.0624
     20 C          -6.7306    1.1013   -0.0708 C.ar    1  LIG1       -0.0490
     21 C          -7.5833    2.2008   -0.0121 C.ar    1  LIG1       -0.0421
     22 H          -7.1348    0.0973   -0.0191 H       1  LIG1        0.0627
     23 H          -3.7214    2.6692   -0.1896 H       1  LIG1        0.0624
     24 C          -9.0810    1.9775    0.1195 C.3     1  LIG1       -0.0391
     25 H          -9.2659    1.0067    0.5783 H       1  LIG1        0.0278
     26 H          -9.5636    1.9899   -0.8598 H       1  LIG1        0.0278
     27 H          -9.5350    2.7547    0.7340 H       1  LIG1        0.0278
     28 C          -8.8544    4.9684   -0.9557 C.ar    1  LIG1        0.0360
     29 C          -7.8734    4.7159    0.0070 C.ar    1  LIG1        0.0005
     30 C          -7.7140    5.6667    1.0140 C.ar    1  LIG1       -0.0506
     31 C          -8.5129    6.8028    1.0192 C.ar    1  LIG1       -0.0351
     32 C          -9.4572    6.9629    0.0023 C.ar    1  LIG1        0.0722
     33 N          -9.6242    6.0490   -0.9576 N.ar    1  LIG1       -0.2543
     34 H          -6.9827    5.5030    1.7961 H       1  LIG1        0.0625
     35 H          -9.0094    4.2652   -1.7664 H       1  LIG1        0.0836
     36 H          -8.4202    7.5454    1.7975 H       1  LIG1        0.0639
     37 C         -10.0314    9.4299    0.3666 C.ar    1  LIG1        0.0340
     38 C         -10.9920   10.4470    0.3005 C.ar    1  LIG1       -0.0440
     39 C         -10.3903    8.1335   -0.0433 C.ar    1  LIG1        0.0174
     40 C         -12.2726   10.2026   -0.1614 C.ar    1  LIG1       -0.0399
     41 H         -10.7106   11.4436    0.6131 H       1  LIG1        0.0630
     42 C         -11.6733    7.8986   -0.5254 C.ar    1  LIG1       -0.0307
     43 C         -12.6279    8.9172   -0.5932 C.ar    1  LIG1        0.0252
     44 H         -11.9168    6.8978   -0.8591 H       1  LIG1        0.0643
     45 H         -13.0022   11.0022   -0.1941 H       1  LIG1        0.0636
     46 C          -8.7040    9.7886    0.8082 C.1     1  LIG1       -0.0690
     47 C          -7.6146   10.1425    1.1768 C.1     1  LIG1       -0.1139
     48 H          -6.6453   10.4489    1.4946 H       1  LIG1        0.1232
     49 N         -13.9168    8.6474   -1.0320 N.pl3   1  LIG1       -0.3579
     50 H         -14.4363    9.4349   -1.3899 H       1  LIG1        0.1423
     51 H         -14.0240    7.8133   -1.5901 H       1  LIG1        0.1423
@<TRIPOS>BOND
     1    14    13    1
     2    13     4    1
     3    35    28    1
     4     7     3    1
     5    51    49    1
     6    50    49    1
     7     4     3   ar
     8     4     5   ar
     9     3     2   ar
    10    49    43    1
    11    33    28   ar
    12    33    32   ar
    13    28    29   ar
    14    26    24    1
    15    44    42    1
    16    43    42   ar
    17    43    40   ar
    18    42    39   ar
    19     2     8    1
    20     2     1   ar
    21     5    17    1
    22     5     6   ar
    23    45    40    1
    24    23    15    1
    25    15    17   ar
    26    15    16   ar
    27    17    20   ar
    28    40    38   ar
    29    19    16    1
    30    16    18   ar
    31    20    22    1
    32    20    21   ar
    33    18    21   ar
    34    18    29    1
    35    39    32    1
    36    39    37   ar
    37    21    24    1
    38    32    31   ar
    39    29    30   ar
    40    24    25    1
    41    24    27    1
    42    38    37   ar
    43    38    41    1
    44    37    46    1
    45     6     1   ar
    46     1     9    1
    47    46    47    3
    48    30    31   ar
    49    30    34    1
    50    31    36    1
    51    47    48    1
    52    11     9    1
    53    10     9    1
    54     9    12    1
