@<TRIPOS>MOLECULE
mol_data/opt/m06hf/geoms/mol2/6if6if-4if6if.out
 55 58 0 0 0
SMALL
GASTEIGER

@<TRIPOS>ATOM
      1 C          -4.0708   -2.0472    0.6217 C.ar    1  LIG1        0.0392
      2 C          -3.0699   -2.2740   -0.3292 C.ar    1  LIG1       -0.0372
      3 C          -2.8182   -1.3159   -1.2977 C.ar    1  LIG1       -0.0164
      4 C          -3.5636   -0.1416   -1.2818 C.ar    1  LIG1        0.1428
      5 C          -4.5171    0.0286   -0.2720 C.ar    1  LIG1        0.1143
      6 N          -4.7726   -0.9167    0.6317 N.ar    1  LIG1       -0.2482
      7 H          -2.0768   -1.4561   -2.0729 H       1  LIG1        0.0655
      8 H          -2.5101   -3.1997   -0.3135 H       1  LIG1        0.0636
      9 C          -4.3915   -3.0596    1.7022 C.3     1  LIG1       -0.0223
     10 H          -4.0633   -4.0565    1.4106 H       1  LIG1        0.0292
     11 H          -5.4653   -3.0640    1.8802 H       1  LIG1        0.0292
     12 H          -3.8897   -2.7800    2.6301 H       1  LIG1        0.0292
     13 O          -3.3502    0.7790   -2.2564 O.3     1  LIG1       -0.5046
     14 H          -4.0383    1.4574   -2.2238 H       1  LIG1        0.2922
     15 C          -4.7679    2.5471   -0.0648 C.ar    1  LIG1        0.0484
     16 C          -5.3397    1.2756   -0.2151 C.ar    1  LIG1        0.0284
     17 C          -6.7273    1.1739   -0.2802 C.ar    1  LIG1       -0.0070
     18 C          -7.5026    2.3216   -0.2342 C.ar    1  LIG1        0.1434
     19 C          -6.8548    3.5662   -0.1297 C.ar    1  LIG1        0.1129
     20 N          -5.5312    3.6409   -0.0400 N.ar    1  LIG1       -0.2476
     21 H          -7.1848    0.1929   -0.3543 H       1  LIG1        0.0662
     22 C          -3.2783    2.7567    0.1422 C.3     1  LIG1       -0.0217
     23 H          -3.1360    3.7752    0.4964 H       1  LIG1        0.0293
     24 H          -2.7184    2.6153   -0.7837 H       1  LIG1        0.0293
     25 H          -2.8996    2.0488    0.8803 H       1  LIG1        0.0293
     26 O          -8.8613    2.2887   -0.2919 O.3     1  LIG1       -0.5046
     27 H          -9.1804    1.3875   -0.1721 H       1  LIG1        0.2922
     28 C          -7.2953    5.8560    0.8287 C.ar    1  LIG1       -0.0404
     29 C          -8.0365    7.0367    0.7807 C.ar    1  LIG1       -0.0469
     30 C          -7.6196    4.8510   -0.0943 C.ar    1  LIG1        0.0103
     31 C          -9.0648    7.2527   -0.1354 C.ar    1  LIG1        0.0257
     32 H          -7.8207    7.8245    1.4937 H       1  LIG1        0.0628
     33 C          -8.6466    5.0462   -1.0184 C.ar    1  LIG1       -0.0100
     34 C          -9.3600    6.2378   -1.0492 C.ar    1  LIG1        0.1252
     35 H          -8.8878    4.2573   -1.7215 H       1  LIG1        0.0661
     36 C          -6.2009    5.7049    1.8718 C.3     1  LIG1       -0.0391
     37 H          -6.3345    6.4588    2.6476 H       1  LIG1        0.0278
     38 H          -5.2202    5.8247    1.4131 H       1  LIG1        0.0278
     39 H          -6.2344    4.7159    2.3295 H       1  LIG1        0.0278
     40 O         -10.3480    6.4641   -1.9610 O.3     1  LIG1       -0.5061
     41 H         -10.4452    5.7030   -2.5427 H       1  LIG1        0.2922
     42 C         -11.1842    8.6100    0.1547 C.ar    1  LIG1        0.0462
     43 C          -9.8093    8.5470   -0.1454 C.ar    1  LIG1        0.0101
     44 C          -9.1248    9.7244   -0.4137 C.ar    1  LIG1       -0.0091
     45 C          -9.8218   10.9286   -0.3966 C.ar    1  LIG1        0.1355
     46 C         -11.1802   10.8965   -0.1070 C.ar    1  LIG1        0.0693
     47 N         -11.8336    9.7699    0.1651 N.ar    1  LIG1       -0.2559
     48 H          -8.0678    9.7201   -0.6474 H       1  LIG1        0.0661
     49 H         -11.7605   11.8148   -0.0857 H       1  LIG1        0.0867
     50 C         -11.9856    7.3724    0.4984 C.3     1  LIG1       -0.0218
     51 H         -11.4584    6.7678    1.2383 H       1  LIG1        0.0293
     52 H         -12.1337    6.7699   -0.3986 H       1  LIG1        0.0293
     53 H         -12.9472    7.6924    0.8928 H       1  LIG1        0.0293
     54 O          -9.1437   12.0789   -0.6620 O.3     1  LIG1       -0.5052
     55 H          -9.7410   12.8344   -0.6382 H       1  LIG1        0.2922
@<TRIPOS>BOND
     1    41    40    1
     2    13    14    1
     3    13     4    1
     4     7     3    1
     5    40    34    1
     6    35    33    1
     7     3     4   ar
     8     3     2   ar
     9     4     5   ar
    10    34    33   ar
    11    34    31   ar
    12    33    30   ar
    13    24    22    1
    14    54    55    1
    15    54    45    1
    16    48    44    1
    17    44    45   ar
    18    44    43   ar
    19    52    50    1
    20    45    46   ar
    21    21    17    1
    22     2     8    1
    23     2     1   ar
    24    26    18    1
    25    26    27    1
    26    17    18   ar
    27    17    16   ar
    28     5    16    1
    29     5     6   ar
    30    18    19   ar
    31    16    15   ar
    32    43    31    1
    33    43    42   ar
    34    31    29   ar
    35    19    30    1
    36    19    20   ar
    37    46    49    1
    38    46    47   ar
    39    30    28   ar
    40    15    20   ar
    41    15    22    1
    42    22    23    1
    43    22    25    1
    44    42    47   ar
    45    42    50    1
    46    50    53    1
    47    50    51    1
    48     1     6   ar
    49     1     9    1
    50    29    28   ar
    51    29    32    1
    52    28    36    1
    53    10     9    1
    54    38    36    1
    55     9    11    1
    56     9    12    1
    57    36    39    1
    58    36    37    1
