@<TRIPOS>MOLECULE
mol_data/opt/m06hf/geoms/mol2/6if6if.out
 28 29 0 0 0
SMALL
GASTEIGER

@<TRIPOS>ATOM
      1 C          -4.4278   -2.0382   -0.5176 C.ar    1  LIG1        0.0392
      2 C          -3.1413   -2.0731    0.0339 C.ar    1  LIG1       -0.0372
      3 C          -2.6116   -0.9278    0.6034 C.ar    1  LIG1       -0.0164
      4 C          -3.3769    0.2355    0.5983 C.ar    1  LIG1        0.1428
      5 C          -4.6469    0.1927    0.0130 C.ar    1  LIG1        0.1143
      6 N          -5.1502   -0.9225   -0.5150 N.ar    1  LIG1       -0.2482
      7 H          -1.6297   -0.9062    1.0568 H       1  LIG1        0.0655
      8 H          -2.5729   -2.9935    0.0198 H       1  LIG1        0.0636
      9 C          -5.0506   -3.2574   -1.1669 C.3     1  LIG1       -0.0223
     10 H          -4.6703   -4.1741   -0.7172 H       1  LIG1        0.0292
     11 H          -4.8195   -3.2686   -2.2337 H       1  LIG1        0.0292
     12 H          -6.1310   -3.2088   -1.0464 H       1  LIG1        0.0292
     13 O          -2.8632    1.3541    1.1686 O.3     1  LIG1       -0.5046
     14 H          -3.5363    2.0462    1.2006 H       1  LIG1        0.2922
     15 C          -6.7715    1.4491    0.5659 C.ar    1  LIG1        0.0477
     16 C          -5.4915    1.4272   -0.0227 C.ar    1  LIG1        0.0284
     17 C          -5.0117    2.5751   -0.6443 C.ar    1  LIG1       -0.0077
     18 C          -5.8138    3.7136   -0.6677 C.ar    1  LIG1        0.1355
     19 C          -7.0625    3.6465   -0.0611 C.ar    1  LIG1        0.0693
     20 N          -7.5196    2.5472    0.5336 N.ar    1  LIG1       -0.2559
     21 H          -4.0418    2.5956   -1.1282 H       1  LIG1        0.0662
     22 H          -7.7184    4.5124   -0.0548 H       1  LIG1        0.0867
     23 C          -7.3545    0.2350    1.2580 C.3     1  LIG1       -0.0217
     24 H          -6.6647   -0.1426    2.0152 H       1  LIG1        0.0293
     25 H          -7.5231   -0.5595    0.5313 H       1  LIG1        0.0293
     26 H          -8.2922    0.5316    1.7220 H       1  LIG1        0.0293
     27 O          -5.3392    4.8293   -1.2805 O.3     1  LIG1       -0.5052
     28 H          -5.9996    5.5307   -1.2703 H       1  LIG1        0.2922
@<TRIPOS>BOND
     1    11     9    1
     2    27    28    1
     3    27    18    1
     4     9    12    1
     5     9    10    1
     6     9     1    1
     7    21    17    1
     8    18    17   ar
     9    18    19   ar
    10    17    16   ar
    11     1     6   ar
    12     1     2   ar
    13     6     5   ar
    14    19    22    1
    15    19    20   ar
    16    16     5    1
    17    16    15   ar
    18     5     4   ar
    19     8     2    1
    20     2     3   ar
    21    25    23    1
    22    20    15   ar
    23    15    23    1
    24     4     3   ar
    25     4    13    1
    26     3     7    1
    27    13    14    1
    28    23    26    1
    29    23    24    1
