@<TRIPOS>MOLECULE
mol_data/opt/m06hf/geoms/mol2/6if6if-6if.out
 41 43 0 0 0
SMALL
GASTEIGER

@<TRIPOS>ATOM
      1 C          -4.3688   -2.0954    0.3374 C.ar    1  LIG1        0.0392
      2 C          -3.0384   -2.1318   -0.0914 C.ar    1  LIG1       -0.0372
      3 C          -2.4481   -0.9804   -0.5892 C.ar    1  LIG1       -0.0164
      4 C          -3.2005    0.1880   -0.6283 C.ar    1  LIG1        0.1428
      5 C          -4.5122    0.1525   -0.1413 C.ar    1  LIG1        0.1143
      6 N          -5.0775   -0.9685    0.3019 N.ar    1  LIG1       -0.2482
      7 H          -1.4319   -0.9633   -0.9597 H       1  LIG1        0.0655
      8 H          -2.4820   -3.0584   -0.0469 H       1  LIG1        0.0636
      9 C          -5.0755   -3.3219    0.8774 C.3     1  LIG1       -0.0223
     10 H          -4.4724   -4.2163    0.7278 H       1  LIG1        0.0292
     11 H          -6.0327   -3.4397    0.3705 H       1  LIG1        0.0292
     12 H          -5.2670   -3.1927    1.9431 H       1  LIG1        0.0292
     13 O          -2.6417    1.3099   -1.1497 O.3     1  LIG1       -0.5046
     14 H          -3.3186    1.9914   -1.2599 H       1  LIG1        0.2922
     15 C          -5.0095    2.5374    0.5699 C.ar    1  LIG1        0.0484
     16 C          -5.3539    1.3891   -0.1596 C.ar    1  LIG1        0.0284
     17 C          -6.5285    1.3973   -0.9072 C.ar    1  LIG1       -0.0070
     18 C          -7.3164    2.5379   -0.9272 C.ar    1  LIG1        0.1434
     19 C          -6.9099    3.6444   -0.1639 C.ar    1  LIG1        0.1144
     20 N          -5.7834    3.6245    0.5409 N.ar    1  LIG1       -0.2475
     21 H          -6.8096    0.5115   -1.4668 H       1  LIG1        0.0662
     22 C          -3.7904    2.5935    1.4731 C.3     1  LIG1       -0.0217
     23 H          -3.8641    3.4983    2.0712 H       1  LIG1        0.0293
     24 H          -2.8641    2.6125    0.8960 H       1  LIG1        0.0293
     25 H          -3.7681    1.7177    2.1233 H       1  LIG1        0.0293
     26 O          -8.4461    2.6442   -1.6713 O.3     1  LIG1       -0.5046
     27 H          -8.6445    1.8082   -2.1070 H       1  LIG1        0.2922
     28 C          -9.0571    4.9640    0.2081 C.ar    1  LIG1        0.0477
     29 C          -7.6971    4.9144   -0.1448 C.ar    1  LIG1        0.0284
     30 C          -7.0271    6.0962   -0.4388 C.ar    1  LIG1       -0.0077
     31 C          -7.7339    7.2905   -0.4208 C.ar    1  LIG1        0.1355
     32 C          -9.0857    7.2469   -0.0909 C.ar    1  LIG1        0.0693
     33 N          -9.7155    6.1220    0.2242 N.ar    1  LIG1       -0.2559
     34 H          -5.9715    6.0940   -0.6756 H       1  LIG1        0.0662
     35 H          -9.6747    8.1598   -0.0662 H       1  LIG1        0.0867
     36 C          -9.8545    3.7465    0.6278 C.3     1  LIG1       -0.0217
     37 H          -9.2084    2.9830    1.0617 H       1  LIG1        0.0293
     38 H         -10.3647    3.3247   -0.2381 H       1  LIG1        0.0293
     39 H         -10.5929    4.0665    1.3603 H       1  LIG1        0.0293
     40 O          -7.0803    8.4459   -0.7205 O.3     1  LIG1       -0.5052
     41 H          -7.6786    9.1982   -0.6563 H       1  LIG1        0.2922
@<TRIPOS>BOND
     1    27    26    1
     2    26    18    1
     3    21    17    1
     4    14    13    1
     5    13     4    1
     6     7     3    1
     7    18    17   ar
     8    18    19   ar
     9    17    16   ar
    10    40    41    1
    11    40    31    1
    12    34    30    1
    13     4     3   ar
    14     4     5   ar
    15     3     2   ar
    16    30    31   ar
    17    30    29   ar
    18    31    32   ar
    19    38    36    1
    20    19    29    1
    21    19    20   ar
    22    16     5    1
    23    16    15   ar
    24    29    28   ar
    25     5     6   ar
    26     2     8    1
    27     2     1   ar
    28    32    35    1
    29    32    33   ar
    30    28    33   ar
    31    28    36    1
    32     6     1   ar
    33     1     9    1
    34    11     9    1
    35    20    15   ar
    36    15    22    1
    37    36    37    1
    38    36    39    1
    39    10     9    1
    40     9    12    1
    41    24    22    1
    42    22    23    1
    43    22    25    1
