@<TRIPOS>MOLECULE
mol_data/opt/m06hf/geoms/mol2/6if6if6if6if.out
 54 57 0 0 0
SMALL
GASTEIGER

@<TRIPOS>ATOM
      1 C          -3.6679   -1.7830   -1.0547 C.ar    1  LIG1        0.0392
      2 C          -2.9409   -2.1792    0.0746 C.ar    1  LIG1       -0.0372
      3 C          -3.0788   -1.4724    1.2562 C.ar    1  LIG1       -0.0164
      4 C          -3.9321   -0.3719    1.2813 C.ar    1  LIG1        0.1428
      5 C          -4.6064   -0.0272    0.1053 C.ar    1  LIG1        0.1143
      6 N          -4.4790   -0.7314   -1.0197 N.ar    1  LIG1       -0.2482
      7 H          -2.5557   -1.7476    2.1622 H       1  LIG1        0.0655
      8 H          -2.2867   -3.0395    0.0201 H       1  LIG1        0.0636
      9 C          -3.5450   -2.5139   -2.3766 C.3     1  LIG1       -0.0223
     10 H          -3.3707   -3.5777   -2.2171 H       1  LIG1        0.0292
     11 H          -2.7113   -2.1055   -2.9509 H       1  LIG1        0.0292
     12 H          -4.4622   -2.3708   -2.9443 H       1  LIG1        0.0292
     13 O          -4.0776    0.3064    2.4478 O.3     1  LIG1       -0.5046
     14 H          -4.8049    0.9377    2.3759 H       1  LIG1        0.2922
     15 C          -6.8584    1.0465   -0.3289 C.ar    1  LIG1        0.0484
     16 C          -5.5153    1.1602    0.0839 C.ar    1  LIG1        0.0284
     17 C          -5.0409    2.4034    0.4858 C.ar    1  LIG1       -0.0070
     18 C          -5.8961    3.5025    0.4604 C.ar    1  LIG1        0.1434
     19 C          -7.2062    3.3083    0.0144 C.ar    1  LIG1        0.1144
     20 N          -7.6564    2.1068   -0.3510 N.ar    1  LIG1       -0.2475
     21 H          -4.0147    2.5438    0.8063 H       1  LIG1        0.0662
     22 C          -7.4593   -0.2733   -0.7653 C.3     1  LIG1       -0.0217
     23 H          -7.2103   -1.0627   -0.0548 H       1  LIG1        0.0293
     24 H          -7.0575   -0.5590   -1.7372 H       1  LIG1        0.0293
     25 H          -8.5379   -0.1474   -0.8273 H       1  LIG1        0.0293
     26 O          -5.4162    4.7004    0.8753 O.3     1  LIG1       -0.5046
     27 H          -6.1377    5.3375    0.9584 H       1  LIG1        0.2922
     28 C          -9.4189    4.3977    0.5790 C.ar    1  LIG1        0.0484
     29 C          -8.1583    4.4587   -0.0492 C.ar    1  LIG1        0.0284
     30 C          -7.8019    5.6193   -0.7268 C.ar    1  LIG1       -0.0070
     31 C          -8.6970    6.6856   -0.7730 C.ar    1  LIG1        0.1434
     32 C          -9.9329    6.5369   -0.1388 C.ar    1  LIG1        0.1144
     33 N         -10.2586    5.4237    0.5195 N.ar    1  LIG1       -0.2475
     34 H          -6.8496    5.7115   -1.2370 H       1  LIG1        0.0662
     35 C          -9.8830    3.1774    1.3468 C.3     1  LIG1       -0.0217
     36 H          -9.1127    2.8467    2.0455 H       1  LIG1        0.0293
     37 H         -10.0810    2.3586    0.6556 H       1  LIG1        0.0293
     38 H         -10.7888    3.4458    1.8856 H       1  LIG1        0.0293
     39 O          -8.3218    7.8132   -1.4242 O.3     1  LIG1       -0.5046
     40 H          -8.9653    8.5168   -1.2676 H       1  LIG1        0.2922
     41 C         -11.4860    8.1628    1.0176 C.ar    1  LIG1        0.0477
     42 C         -10.9338    7.6471   -0.1721 C.ar    1  LIG1        0.0284
     43 C         -11.3328    8.1822   -1.3931 C.ar    1  LIG1       -0.0077
     44 C         -12.2670    9.2148   -1.4026 C.ar    1  LIG1        0.1355
     45 C         -12.7587    9.6630   -0.1820 C.ar    1  LIG1        0.0693
     46 N         -12.3763    9.1493    0.9840 N.ar    1  LIG1       -0.2559
     47 H         -10.9556    7.7976   -2.3339 H       1  LIG1        0.0662
     48 H         -13.4889   10.4665   -0.1446 H       1  LIG1        0.0867
     49 C         -11.1066    7.6284    2.3830 C.3     1  LIG1       -0.0217
     50 H         -10.0219    7.5728    2.4881 H       1  LIG1        0.0293
     51 H         -11.5084    6.6238    2.5118 H       1  LIG1        0.0293
     52 H         -11.5214    8.3008    3.1303 H       1  LIG1        0.0293
     53 O         -12.6522    9.7301   -2.5984 O.3     1  LIG1       -0.5052
     54 H         -13.3304   10.4042   -2.4788 H       1  LIG1        0.2922
@<TRIPOS>BOND
     1    11     9    1
     2    12     9    1
     3    53    54    1
     4    53    44    1
     5     9    10    1
     6     9     1    1
     7    47    43    1
     8    24    22    1
     9    39    40    1
    10    39    31    1
    11    44    43   ar
    12    44    45   ar
    13    43    42   ar
    14    34    30    1
    15     1     6   ar
    16     1     2   ar
    17     6     5   ar
    18    25    22    1
    19    31    30   ar
    20    31    32   ar
    21    22    15    1
    22    22    23    1
    23    30    29   ar
    24    20    15   ar
    25    20    19   ar
    26    15    16   ar
    27    45    48    1
    28    45    46   ar
    29    42    32    1
    30    42    41   ar
    31    32    33   ar
    32    29    19    1
    33    29    28   ar
    34    19    18   ar
    35     8     2    1
    36     2     3   ar
    37    16     5    1
    38    16    17   ar
    39     5     4   ar
    40    18    17   ar
    41    18    26    1
    42    17    21    1
    43    33    28   ar
    44    28    35    1
    45    37    35    1
    46    26    27    1
    47    46    41   ar
    48    41    49    1
    49     3     4   ar
    50     3     7    1
    51     4    13    1
    52    35    38    1
    53    35    36    1
    54    14    13    1
    55    49    50    1
    56    49    51    1
    57    49    52    1
