@<TRIPOS>MOLECULE
mol_data/opt/m06hf/geoms/mol2/6if6if-6if-6if.out
 54 57 0 0 0
SMALL
GASTEIGER

@<TRIPOS>ATOM
      1 C          -4.1295   -2.0590    0.6873 C.ar    1  LIG1        0.0392
      2 C          -3.0997   -2.2987   -0.2279 C.ar    1  LIG1       -0.0372
      3 C          -2.8064   -1.3461   -1.1910 C.ar    1  LIG1       -0.0164
      4 C          -3.5392   -0.1644   -1.2040 C.ar    1  LIG1        0.1428
      5 C          -4.5210    0.0207   -0.2232 C.ar    1  LIG1        0.1143
      6 N          -4.8173   -0.9195    0.6723 N.ar    1  LIG1       -0.2482
      7 H          -2.0422   -1.4973   -1.9416 H       1  LIG1        0.0655
      8 H          -2.5495   -3.2294   -0.1908 H       1  LIG1        0.0636
      9 C          -4.5105   -3.0656    1.7537 C.3     1  LIG1       -0.0223
     10 H          -4.0385   -4.0291    1.5672 H       1  LIG1        0.0292
     11 H          -5.5930   -3.1861    1.7635 H       1  LIG1        0.0292
     12 H          -4.1984   -2.6977    2.7318 H       1  LIG1        0.0292
     13 O          -3.2891    0.7474   -2.1781 O.3     1  LIG1       -0.5046
     14 H          -3.9757    1.4279   -2.1758 H       1  LIG1        0.2922
     15 C          -4.7465    2.5458   -0.0470 C.ar    1  LIG1        0.0484
     16 C          -5.3294    1.2777   -0.1896 C.ar    1  LIG1        0.0284
     17 C          -6.7173    1.1871   -0.2631 C.ar    1  LIG1       -0.0070
     18 C          -7.4823    2.3420   -0.2365 C.ar    1  LIG1        0.1434
     19 C          -6.8228    3.5813   -0.1436 C.ar    1  LIG1        0.1144
     20 N          -5.5000    3.6467   -0.0443 N.ar    1  LIG1       -0.2475
     21 H          -7.1823    0.2090   -0.3280 H       1  LIG1        0.0662
     22 C          -3.2577    2.7466    0.1747 C.3     1  LIG1       -0.0217
     23 H          -3.1142    3.7592    0.5449 H       1  LIG1        0.0293
     24 H          -2.6904    2.6161   -0.7481 H       1  LIG1        0.0293
     25 H          -2.8882    2.0262    0.9055 H       1  LIG1        0.0293
     26 O          -8.8408    2.3247   -0.3040 O.3     1  LIG1       -0.5046
     27 H          -9.1753    1.4289   -0.1857 H       1  LIG1        0.2922
     28 C          -7.2363    5.9173    0.7352 C.ar    1  LIG1        0.0484
     29 C          -7.5775    4.8689   -0.1367 C.ar    1  LIG1        0.0284
     30 C          -8.6247    5.0640   -1.0324 C.ar    1  LIG1       -0.0070
     31 C          -9.2999    6.2760   -1.0487 C.ar    1  LIG1        0.1434
     32 C          -8.9225    7.2601   -0.1287 C.ar    1  LIG1        0.1144
     33 N          -7.9105    7.0656    0.7138 N.ar    1  LIG1       -0.2475
     34 H          -8.9062    4.2716   -1.7172 H       1  LIG1        0.0662
     35 C          -6.1200    5.8294    1.7575 C.3     1  LIG1       -0.0217
     36 H          -6.2755    6.6289    2.4783 H       1  LIG1        0.0293
     37 H          -5.1535    5.9499    1.2687 H       1  LIG1        0.0293
     38 H          -6.1232    4.8608    2.2575 H       1  LIG1        0.0293
     39 O         -10.2972    6.5514   -1.9310 O.3     1  LIG1       -0.5046
     40 H         -10.4193    5.8152   -2.5397 H       1  LIG1        0.2922
     41 C         -10.9716    8.7673    0.0641 C.ar    1  LIG1        0.0477
     42 C          -9.5846    8.5987   -0.0868 C.ar    1  LIG1        0.0284
     43 C          -8.7669    9.7213   -0.1498 C.ar    1  LIG1       -0.0077
     44 C          -9.3495   10.9800   -0.1097 C.ar    1  LIG1        0.1355
     45 C         -10.7340   11.0574    0.0114 C.ar    1  LIG1        0.0693
     46 N         -11.5105    9.9854    0.1075 N.ar    1  LIG1       -0.2559
     47 H          -7.6922    9.6205   -0.2273 H       1  LIG1        0.0662
     48 H         -11.2288   12.0244    0.0477 H       1  LIG1        0.0867
     49 C         -11.9389    7.6131    0.2278 C.3     1  LIG1       -0.0217
     50 H         -11.4464    6.7475    0.6713 H       1  LIG1        0.0293
     51 H         -12.3401    7.3270   -0.7442 H       1  LIG1        0.0293
     52 H         -12.7518    7.9471    0.8698 H       1  LIG1        0.0293
     53 O          -8.5490   12.0787   -0.1847 O.3     1  LIG1       -0.5052
     54 H          -9.0779   12.8830   -0.1471 H       1  LIG1        0.2922
@<TRIPOS>BOND
     1    40    39    1
     2    13    14    1
     3    13     4    1
     4     7     3    1
     5    39    31    1
     6    34    30    1
     7     4     3   ar
     8     4     5   ar
     9     3     2   ar
    10    31    30   ar
    11    31    32   ar
    12    30    29   ar
    13    24    22    1
    14    51    49    1
    15    21    17    1
    16    26    18    1
    17    26    27    1
    18    17    18   ar
    19    17    16   ar
    20    18    19   ar
    21     2     8    1
    22     2     1   ar
    23    47    43    1
    24     5    16    1
    25     5     6   ar
    26    16    15   ar
    27    53    54    1
    28    53    44    1
    29    43    44   ar
    30    43    42   ar
    31    19    29    1
    32    19    20   ar
    33    29    28   ar
    34    32    42    1
    35    32    33   ar
    36    44    45   ar
    37    42    41   ar
    38    15    20   ar
    39    15    22    1
    40    45    48    1
    41    45    46   ar
    42    41    46   ar
    43    41    49    1
    44    22    23    1
    45    22    25    1
    46    49    50    1
    47    49    52    1
    48     6     1   ar
    49     1     9    1
    50    33    28   ar
    51    28    35    1
    52    37    35    1
    53    10     9    1
    54     9    11    1
    55     9    12    1
    56    35    38    1
    57    35    36    1
