@<TRIPOS>MOLECULE
mol_data/opt/m06hf/geoms/mol2/6if6if-6if6if-.out
 54 57 0 0 0
SMALL
GASTEIGER

@<TRIPOS>ATOM
      1 C          -4.2410   -2.1342    0.4489 C.ar    1  LIG1        0.0392
      2 C          -2.9854   -2.2103   -0.1614 C.ar    1  LIG1       -0.0372
      3 C          -2.4865   -1.1074   -0.8370 C.ar    1  LIG1       -0.0164
      4 C          -3.2492    0.0545   -0.8697 C.ar    1  LIG1        0.1428
      5 C          -4.4754    0.0658   -0.1932 C.ar    1  LIG1        0.1143
      6 N          -4.9586   -1.0131    0.4201 N.ar    1  LIG1       -0.2482
      7 H          -1.5346   -1.1243   -1.3509 H       1  LIG1        0.0655
      8 H          -2.4182   -3.1304   -0.1176 H       1  LIG1        0.0636
      9 C          -4.8502   -3.3081    1.1885 C.3     1  LIG1       -0.0223
     10 H          -4.2851   -4.2206    1.0043 H       1  LIG1        0.0292
     11 H          -5.8799   -3.4446    0.8608 H       1  LIG1        0.0292
     12 H          -4.8561   -3.1008    2.2594 H       1  LIG1        0.0292
     13 O          -2.7824    1.1209   -1.5682 O.3     1  LIG1       -0.5046
     14 H          -3.4768    1.7878   -1.6548 H       1  LIG1        0.2922
     15 C          -4.8907    2.5151    0.3402 C.ar    1  LIG1        0.0484
     16 C          -5.3298    1.2938   -0.1932 C.ar    1  LIG1        0.0284
     17 C          -6.6180    1.2150   -0.7170 C.ar    1  LIG1       -0.0070
     18 C          -7.4226    2.3438   -0.7210 C.ar    1  LIG1        0.1434
     19 C          -6.9103    3.5304   -0.1731 C.ar    1  LIG1        0.1144
     20 N          -5.6796    3.5920    0.3235 N.ar    1  LIG1       -0.2475
     21 H          -6.9727    0.2710   -1.1169 H       1  LIG1        0.0662
     22 C          -3.5450    2.6732    1.0254 C.3     1  LIG1       -0.0217
     23 H          -3.5282    3.6546    1.4927 H       1  LIG1        0.0293
     24 H          -2.7179    2.5902    0.3186 H       1  LIG1        0.0293
     25 H          -3.4230    1.8988    1.7843 H       1  LIG1        0.0293
     26 O          -8.6702    2.3663   -1.2543 O.3     1  LIG1       -0.5046
     27 H          -8.9219    1.4922   -1.5720 H       1  LIG1        0.2922
     28 C          -8.9777    4.9071    0.4099 C.ar    1  LIG1        0.0484
     29 C          -7.7020    4.7981   -0.1701 C.ar    1  LIG1        0.0284
     30 C          -7.1212    5.9238   -0.7403 C.ar    1  LIG1       -0.0070
     31 C          -7.8256    7.1194   -0.7491 C.ar    1  LIG1        0.1434
     32 C          -9.0828    7.1509   -0.1364 C.ar    1  LIG1        0.1144
     33 N          -9.6307    6.0674    0.4084 N.ar    1  LIG1       -0.2475
     34 H          -6.1368    5.8776   -1.1872 H       1  LIG1        0.0662
     35 C          -9.6799    3.7578    1.1033 C.3     1  LIG1       -0.0217
     36 H          -8.9609    3.0497    1.5156 H       1  LIG1        0.0293
     37 H         -10.3195    3.2337    0.3931 H       1  LIG1        0.0293
     38 H         -10.2914    4.1718    1.9024 H       1  LIG1        0.0293
     39 O          -7.2749    8.1998   -1.3602 O.3     1  LIG1       -0.5046
     40 H          -7.9314    8.9065   -1.4278 H       1  LIG1        0.2922
     41 C          -9.4142    9.5813    0.5085 C.ar    1  LIG1        0.0477
     42 C          -9.8828    8.4148   -0.1146 C.ar    1  LIG1        0.0284
     43 C         -11.1460    8.4185   -0.7068 C.ar    1  LIG1       -0.0077
     44 C         -11.8870    9.5888   -0.6936 C.ar    1  LIG1        0.1355
     45 C         -11.3268   10.7182   -0.0894 C.ar    1  LIG1        0.0693
     46 N         -10.1399   10.7055    0.4959 N.ar    1  LIG1       -0.2559
     47 H         -11.5267    7.5072   -1.1554 H       1  LIG1        0.0662
     48 H         -11.8882   11.6448   -0.0822 H       1  LIG1        0.0867
     49 C          -8.1105    9.6233    1.2863 C.3     1  LIG1       -0.0217
     50 H          -8.0739   10.5740    1.8128 H       1  LIG1        0.0293
     51 H          -7.2434    9.5365    0.6294 H       1  LIG1        0.0293
     52 H          -8.0786    8.8004    2.0018 H       1  LIG1        0.0293
     53 O         -13.1248    9.7145   -1.2397 O.3     1  LIG1       -0.5052
     54 H         -13.4367    8.8679   -1.5757 H       1  LIG1        0.2922
@<TRIPOS>BOND
     1    14    13    1
     2    54    53    1
     3    27    26    1
     4    13     4    1
     5    40    39    1
     6    39    31    1
     7     7     3    1
     8    26    18    1
     9    53    44    1
    10    34    30    1
    11    47    43    1
    12    21    17    1
    13     4     3   ar
    14     4     5   ar
    15     3     2   ar
    16    31    30   ar
    17    31    32   ar
    18    30    29   ar
    19    18    17   ar
    20    18    19   ar
    21    17    16   ar
    22    43    44   ar
    23    43    42   ar
    24    44    45   ar
    25     5    16    1
    26     5     6   ar
    27    16    15   ar
    28    19    29    1
    29    19    20   ar
    30    29    28   ar
    31     2     8    1
    32     2     1   ar
    33    32    42    1
    34    32    33   ar
    35    42    41   ar
    36    45    48    1
    37    45    46   ar
    38    24    22    1
    39    20    15   ar
    40    15    22    1
    41    37    35    1
    42    33    28   ar
    43    28    35    1
    44     6     1   ar
    45     1     9    1
    46    46    41   ar
    47    41    49    1
    48    51    49    1
    49    11     9    1
    50    10     9    1
    51    22    23    1
    52    22    25    1
    53    35    36    1
    54    35    38    1
    55     9    12    1
    56    49    50    1
    57    49    52    1
