@<TRIPOS>MOLECULE
mol_data/opt/m06hf/geoms/mol2/6if6if6if.out
 41 43 0 0 0
SMALL
GASTEIGER

@<TRIPOS>ATOM
      1 C          -4.1194   -1.9740   -0.8583 C.ar    1  LIG1        0.0392
      2 C          -3.0726   -2.1526    0.0517 C.ar    1  LIG1       -0.0372
      3 C          -2.8308   -1.1825    1.0114 C.ar    1  LIG1       -0.0164
      4 C          -3.6330   -0.0466    1.0310 C.ar    1  LIG1        0.1428
      5 C          -4.6463    0.0686    0.0708 C.ar    1  LIG1        0.1143
      6 N          -4.8783   -0.8815   -0.8321 N.ar    1  LIG1       -0.2482
      7 H          -2.0452   -1.2806    1.7487 H       1  LIG1        0.0655
      8 H          -2.4651   -3.0467    0.0089 H       1  LIG1        0.0636
      9 C          -4.4497   -2.9999   -1.9230 C.3     1  LIG1       -0.0223
     10 H          -3.7983   -3.8691   -1.8423 H       1  LIG1        0.0292
     11 H          -4.3318   -2.5509   -2.9092 H       1  LIG1        0.0292
     12 H          -5.4876   -3.3145   -1.8119 H       1  LIG1        0.0292
     13 O          -3.4000    0.8953    1.9800 O.3     1  LIG1       -0.5046
     14 H          -4.1184    1.5409    1.9904 H       1  LIG1        0.2922
     15 C          -6.9214    1.1782    0.0818 C.ar    1  LIG1        0.0484
     16 C          -5.5162    1.2850    0.0401 C.ar    1  LIG1        0.0284
     17 C          -4.9409    2.5487   -0.0283 C.ar    1  LIG1       -0.0070
     18 C          -5.7638    3.6721   -0.0664 C.ar    1  LIG1        0.1434
     19 C          -7.1472    3.4772   -0.0432 C.ar    1  LIG1        0.1144
     20 N          -7.6880    2.2611    0.0414 N.ar    1  LIG1       -0.2475
     21 H          -3.8659    2.6825   -0.0716 H       1  LIG1        0.0662
     22 C          -7.6274   -0.1586    0.1717 C.3     1  LIG1       -0.0217
     23 H          -7.2043   -0.7636    0.9754 H       1  LIG1        0.0293
     24 H          -7.5016   -0.7060   -0.7619 H       1  LIG1        0.0293
     25 H          -8.6815    0.0320    0.3602 H       1  LIG1        0.0293
     26 O          -5.1840    4.8958   -0.1202 O.3     1  LIG1       -0.5046
     27 H          -5.8551    5.5845   -0.0254 H       1  LIG1        0.2922
     28 C          -9.0486    4.8589    0.8917 C.ar    1  LIG1        0.0477
     29 C          -8.0708    4.6516   -0.1022 C.ar    1  LIG1        0.0284
     30 C          -7.9679    5.5590   -1.1516 C.ar    1  LIG1       -0.0077
     31 C          -8.8354    6.6479   -1.1886 C.ar    1  LIG1        0.1355
     32 C          -9.7682    6.7757   -0.1660 C.ar    1  LIG1        0.0693
     33 N          -9.8656    5.9058    0.8361 N.ar    1  LIG1       -0.2559
     34 H          -7.2497    5.4236   -1.9523 H       1  LIG1        0.0662
     35 H         -10.4628    7.6108   -0.1554 H       1  LIG1        0.0867
     36 C          -9.2206    3.9135    2.0622 C.3     1  LIG1       -0.0217
     37 H          -8.2651    3.7431    2.5614 H       1  LIG1        0.0293
     38 H          -9.5923    2.9515    1.7103 H       1  LIG1        0.0293
     39 H          -9.9284    4.3645    2.7537 H       1  LIG1        0.0293
     40 O          -8.7258    7.5281   -2.2169 O.3     1  LIG1       -0.5052
     41 H          -9.4049    8.2090   -2.1588 H       1  LIG1        0.2922
@<TRIPOS>BOND
     1    11     9    1
     2    40    41    1
     3    40    31    1
     4    34    30    1
     5     9    10    1
     6     9    12    1
     7     9     1    1
     8    31    30   ar
     9    31    32   ar
    10    30    29   ar
    11     1     6   ar
    12     1     2   ar
    13     6     5   ar
    14    24    22    1
    15    32    35    1
    16    32    33   ar
    17    26    18    1
    18    26    27    1
    19    29    19    1
    20    29    28   ar
    21    21    17    1
    22    18    19   ar
    23    18    17   ar
    24    19    20   ar
    25    17    16   ar
    26     8     2    1
    27    16     5    1
    28    16    15   ar
    29    20    15   ar
    30     2     3   ar
    31     5     4   ar
    32    15    22    1
    33    22    25    1
    34    22    23    1
    35    33    28   ar
    36    28    36    1
    37     3     4   ar
    38     3     7    1
    39     4    13    1
    40    38    36    1
    41    13    14    1
    42    36    37    1
    43    36    39    1
