@<TRIPOS>MOLECULE
mol_data/opt/m06hf/geoms/mol2/6if6if-.out
 28 29 0 0 0
SMALL
GASTEIGER

@<TRIPOS>ATOM
      1 C          -4.3910   -2.0123    0.3791 C.ar    1  LIG1        0.0392
      2 C          -3.1338   -2.0753   -0.2288 C.ar    1  LIG1       -0.0372
      3 C          -2.6176   -0.9472   -0.8484 C.ar    1  LIG1       -0.0164
      4 C          -3.3667    0.2232   -0.8304 C.ar    1  LIG1        0.1428
      5 C          -4.5979    0.2172   -0.1617 C.ar    1  LIG1        0.1143
      6 N          -5.0956   -0.8821    0.3993 N.ar    1  LIG1       -0.2482
      7 H          -1.6623   -0.9511   -1.3561 H       1  LIG1        0.0655
      8 H          -2.5779   -3.0035   -0.2264 H       1  LIG1        0.0636
      9 C          -5.0238   -3.2135    1.0517 C.3     1  LIG1       -0.0223
     10 H          -4.3982   -4.0977    0.9391 H       1  LIG1        0.0292
     11 H          -6.0012   -3.4035    0.6087 H       1  LIG1        0.0292
     12 H          -5.1646   -3.0038    2.1122 H       1  LIG1        0.0292
     13 O          -2.8851    1.3175   -1.4730 O.3     1  LIG1       -0.5046
     14 H          -3.5626    2.0071   -1.4977 H       1  LIG1        0.2922
     15 C          -4.9793    2.6406    0.4820 C.ar    1  LIG1        0.0477
     16 C          -5.4345    1.4568   -0.1176 C.ar    1  LIG1        0.0284
     17 C          -6.7154    1.4209   -0.6690 C.ar    1  LIG1       -0.0077
     18 C          -7.4895    2.5692   -0.6372 C.ar    1  LIG1        0.1355
     19 C          -6.9435    3.7177   -0.0561 C.ar    1  LIG1        0.0693
     20 N          -5.7377    3.7431    0.4884 N.ar    1  LIG1       -0.2559
     21 H          -7.0835    0.4969   -1.1019 H       1  LIG1        0.0662
     22 H          -7.5317    4.6273   -0.0336 H       1  LIG1        0.0867
     23 C          -3.6486    2.7284    1.2090 C.3     1  LIG1       -0.0217
     24 H          -3.6245    3.6807    1.7333 H       1  LIG1        0.0293
     25 H          -2.8050    2.6720    0.5188 H       1  LIG1        0.0293
     26 H          -3.5597    1.9085    1.9230 H       1  LIG1        0.0293
     27 O          -8.7463    2.6560   -1.1451 O.3     1  LIG1       -0.5052
     28 H          -9.0445    1.7991   -1.4673 H       1  LIG1        0.2922
@<TRIPOS>BOND
     1    14    13    1
     2    13     4    1
     3    28    27    1
     4     7     3    1
     5    27    18    1
     6    21    17    1
     7     3     4   ar
     8     3     2   ar
     9     4     5   ar
    10    17    18   ar
    11    17    16   ar
    12    18    19   ar
    13     2     8    1
    14     2     1   ar
    15     5    16    1
    16     5     6   ar
    17    16    15   ar
    18    19    22    1
    19    19    20   ar
    20     1     6   ar
    21     1     9    1
    22    15    20   ar
    23    15    23    1
    24    25    23    1
    25    11     9    1
    26    10     9    1
    27     9    12    1
    28    23    24    1
    29    23    26    1
