@<TRIPOS>MOLECULE
mol_data/opt/m06hf/geoms/mol2/6if6if-6if-6if-.out
 54 57 0 0 0
SMALL
GASTEIGER

@<TRIPOS>ATOM
      1 C          -3.8383   -1.8902    0.8573 C.ar    1  LIG1        0.0392
      2 C          -3.2468   -2.3865   -0.3090 C.ar    1  LIG1       -0.0372
      3 C          -3.3913   -1.6903   -1.4985 C.ar    1  LIG1       -0.0164
      4 C          -4.1125   -0.5013   -1.4899 C.ar    1  LIG1        0.1428
      5 C          -4.6401   -0.0518   -0.2746 C.ar    1  LIG1        0.1143
      6 N          -4.5217   -0.7479    0.8546 N.ar    1  LIG1       -0.2482
      7 H          -2.9765   -2.0460   -2.4322 H       1  LIG1        0.0655
      8 H          -2.6925   -3.3151   -0.2802 H       1  LIG1        0.0636
      9 C          -3.7171   -2.6056    2.1873 C.3     1  LIG1       -0.0223
     10 H          -3.3917   -3.6357    2.0483 H       1  LIG1        0.0292
     11 H          -4.6821   -2.5914    2.6913 H       1  LIG1        0.0292
     12 H          -2.9932   -2.0860    2.8168 H       1  LIG1        0.0292
     13 O          -4.2895    0.1637   -2.6602 O.3     1  LIG1       -0.5046
     14 H          -4.9378    0.8711   -2.5417 H       1  LIG1        0.2922
     15 C          -4.8545    2.4623   -0.5542 C.ar    1  LIG1        0.0484
     16 C          -5.4199    1.2231   -0.2169 C.ar    1  LIG1        0.0284
     17 C          -6.7404    1.1902    0.2227 C.ar    1  LIG1       -0.0070
     18 C          -7.4717    2.3662    0.2844 C.ar    1  LIG1        0.1434
     19 C          -6.8486    3.5643   -0.1079 C.ar    1  LIG1        0.1144
     20 N          -5.5797    3.5800   -0.5023 N.ar    1  LIG1       -0.2475
     21 H          -7.1769    0.2439    0.5243 H       1  LIG1        0.0662
     22 C          -3.3911    2.6175   -0.9278 C.3     1  LIG1       -0.0217
     23 H          -3.1671    3.6816   -0.9487 H       1  LIG1        0.0293
     24 H          -3.1768    2.1810   -1.9049 H       1  LIG1        0.0293
     25 H          -2.7645    2.1193   -0.1868 H       1  LIG1        0.0293
     26 O          -8.7661    2.4044    0.7012 O.3     1  LIG1       -0.5046
     27 H          -9.0218    1.5613    1.0913 H       1  LIG1        0.2922
     28 C          -6.9576    6.0393    0.3916 C.ar    1  LIG1        0.0484
     29 C          -7.5724    4.8690   -0.0848 C.ar    1  LIG1        0.0284
     30 C          -8.8752    4.9567   -0.5659 C.ar    1  LIG1       -0.0070
     31 C          -9.5260    6.1815   -0.5803 C.ar    1  LIG1        0.1434
     32 C          -8.8429    7.3087   -0.1026 C.ar    1  LIG1        0.1144
     33 N          -7.6021    7.2030    0.3663 N.ar    1  LIG1       -0.2475
     34 H          -9.3822    4.0664   -0.9209 H       1  LIG1        0.0662
     35 C          -5.5590    6.0758    0.9760 C.3     1  LIG1       -0.0217
     36 H          -5.4661    7.0008    1.5414 H       1  LIG1        0.0293
     37 H          -4.8178    6.0517    0.1778 H       1  LIG1        0.0293
     38 H          -5.3833    5.2167    1.6236 H       1  LIG1        0.0293
     39 O         -10.8007    6.3218   -1.0432 O.3     1  LIG1       -0.5046
     40 H         -11.1885    5.4570   -1.2146 H       1  LIG1        0.2922
     41 C          -9.3054    9.5408    0.9905 C.ar    1  LIG1        0.0477
     42 C          -9.4665    8.6652   -0.0969 C.ar    1  LIG1        0.0284
     43 C         -10.2011    9.0920   -1.2030 C.ar    1  LIG1       -0.0077
     44 C         -10.7404   10.3689   -1.2036 C.ar    1  LIG1        0.1355
     45 C         -10.5291   11.1740   -0.0871 C.ar    1  LIG1        0.0693
     46 N          -9.8397   10.7643    0.9687 N.ar    1  LIG1       -0.2559
     47 H         -10.3476    8.4261   -2.0453 H       1  LIG1        0.0662
     48 H         -10.9428   12.1752   -0.0676 H       1  LIG1        0.0867
     49 C          -8.5455    9.1781    2.2515 C.3     1  LIG1       -0.0217
     50 H          -8.7930    9.9230    3.0044 H       1  LIG1        0.0293
     51 H          -7.4738    9.1791    2.0560 H       1  LIG1        0.0293
     52 H          -8.8197    8.1816    2.5999 H       1  LIG1        0.0293
     53 O         -11.4673   10.8836   -2.2343 O.3     1  LIG1       -0.5052
     54 H         -11.5589   10.2315   -2.9364 H       1  LIG1        0.2922
@<TRIPOS>BOND
     1    54    53    1
     2    13    14    1
     3    13     4    1
     4     7     3    1
     5    53    44    1
     6    47    43    1
     7    24    22    1
     8     3     4   ar
     9     3     2   ar
    10     4     5   ar
    11    40    39    1
    12    44    43   ar
    13    44    45   ar
    14    43    42   ar
    15    39    31    1
    16    23    22    1
    17    22    15    1
    18    22    25    1
    19    34    30    1
    20    31    30   ar
    21    31    32   ar
    22    30    29   ar
    23    15    20   ar
    24    15    16   ar
    25    20    19   ar
    26     2     8    1
    27     2     1   ar
    28     5    16    1
    29     5     6   ar
    30    16    17   ar
    31    19    29    1
    32    19    18   ar
    33    32    42    1
    34    32    33   ar
    35    42    41   ar
    36    45    48    1
    37    45    46   ar
    38    29    28   ar
    39    37    35    1
    40    17    18   ar
    41    17    21    1
    42    18    26    1
    43    33    28   ar
    44    28    35    1
    45    26    27    1
    46     6     1   ar
    47     1     9    1
    48    46    41   ar
    49    35    36    1
    50    35    38    1
    51    41    49    1
    52    10     9    1
    53    51    49    1
    54     9    11    1
    55     9    12    1
    56    49    52    1
    57    49    50    1
