@<TRIPOS>MOLECULE
mol_data/opt/m06hf/geoms/mol2/6if6if6if-6if.out
 54 57 0 0 0
SMALL
GASTEIGER

@<TRIPOS>ATOM
      1 C          -4.2541   -2.2017   -0.4309 C.ar    1  LIG1        0.0392
      2 C          -2.9413   -2.1756    0.0497 C.ar    1  LIG1       -0.0372
      3 C          -2.4157   -0.9886    0.5345 C.ar    1  LIG1       -0.0164
      4 C          -3.2129    0.1511    0.5176 C.ar    1  LIG1        0.1428
      5 C          -4.5108    0.0470    0.0018 C.ar    1  LIG1        0.1143
      6 N          -5.0068   -1.1048   -0.4446 N.ar    1  LIG1       -0.2482
      7 H          -1.4121   -0.9180    0.9322 H       1  LIG1        0.0655
      8 H          -2.3473   -3.0798    0.0492 H       1  LIG1        0.0636
      9 C          -4.8912   -3.4657   -0.9710 C.3     1  LIG1       -0.0223
     10 H          -4.2540   -4.3305   -0.7921 H       1  LIG1        0.0292
     11 H          -5.0601   -3.3605   -2.0433 H       1  LIG1        0.0292
     12 H          -5.8551   -3.6190   -0.4865 H       1  LIG1        0.0292
     13 O          -2.7003    1.3087    1.0063 O.3     1  LIG1       -0.5046
     14 H          -3.3972    1.9722    1.0883 H       1  LIG1        0.2922
     15 C          -6.6831    1.2449    0.5136 C.ar    1  LIG1        0.0484
     16 C          -5.3923    1.2543   -0.0529 C.ar    1  LIG1        0.0284
     17 C          -4.9482    2.4074   -0.6911 C.ar    1  LIG1       -0.0070
     18 C          -5.7790    3.5233   -0.7373 C.ar    1  LIG1        0.1434
     19 C          -7.0225    3.4478   -0.1058 C.ar    1  LIG1        0.1144
     20 N          -7.4551    2.3251    0.4714 N.ar    1  LIG1       -0.2475
     21 H          -3.9850    2.4468   -1.1872 H       1  LIG1        0.0662
     22 C          -7.2559    0.0195    1.1951 C.3     1  LIG1       -0.0217
     23 H          -6.5544   -0.3681    1.9360 H       1  LIG1        0.0293
     24 H          -7.4310   -0.7653    0.4597 H       1  LIG1        0.0293
     25 H          -8.1869    0.3085    1.6767 H       1  LIG1        0.0293
     26 O          -5.3513    4.6219   -1.4072 O.3     1  LIG1       -0.5046
     27 H          -6.0821    5.2455   -1.5170 H       1  LIG1        0.2922
     28 C          -7.6051    5.8596    0.4376 C.ar    1  LIG1        0.0484
     29 C          -7.9520    4.6184   -0.1167 C.ar    1  LIG1        0.0284
     30 C          -9.2176    4.4638   -0.6788 C.ar    1  LIG1       -0.0070
     31 C         -10.0890    5.5413   -0.7012 C.ar    1  LIG1        0.1434
     32 C          -9.6670    6.7543   -0.1317 C.ar    1  LIG1        0.1144
     33 N          -8.4583    6.8861    0.4033 N.ar    1  LIG1       -0.2475
     34 H          -9.5015    3.5026   -1.0939 H       1  LIG1        0.0662
     35 C          -6.2944    6.0963    1.1671 C.3     1  LIG1       -0.0217
     36 H          -6.3497    7.0794    1.6276 H       1  LIG1        0.0293
     37 H          -5.4394    6.0568    0.4902 H       1  LIG1        0.0293
     38 H          -6.1569    5.3352    1.9370 H       1  LIG1        0.0293
     39 O         -11.3190    5.4915   -1.2697 O.3     1  LIG1       -0.5046
     40 H         -11.4939    4.6163   -1.6330 H       1  LIG1        0.2922
     41 C         -11.8342    7.9962    0.3796 C.ar    1  LIG1        0.0477
     42 C         -10.5337    7.9716   -0.1516 C.ar    1  LIG1        0.0284
     43 C          -9.9926    9.1378   -0.6804 C.ar    1  LIG1       -0.0077
     44 C         -10.7714   10.2860   -0.7102 C.ar    1  LIG1        0.1355
     45 C         -12.0610   10.2160   -0.1907 C.ar    1  LIG1        0.0693
     46 N         -12.5633    9.1110    0.3456 N.ar    1  LIG1       -0.2559
     47 H          -8.9802    9.1593   -1.0619 H       1  LIG1        0.0662
     48 H         -12.7038   11.0921   -0.1963 H       1  LIG1        0.0867
     49 C         -12.4844    6.8055    1.0535 C.3     1  LIG1       -0.0217
     50 H         -11.7371    6.1315    1.4726 H       1  LIG1        0.0293
     51 H         -13.0868    6.2563    0.3300 H       1  LIG1        0.0293
     52 H         -13.1289    7.1813    1.8457 H       1  LIG1        0.0293
     53 O         -10.2446   11.4234   -1.2397 O.3     1  LIG1       -0.5052
     54 H         -10.8828   12.1438   -1.1943 H       1  LIG1        0.2922
@<TRIPOS>BOND
     1    11     9    1
     2    40    39    1
     3    27    26    1
     4    26    18    1
     5    39    31    1
     6    53    54    1
     7    53    44    1
     8    21    17    1
     9    34    30    1
    10    47    43    1
    11     9    10    1
    12     9    12    1
    13     9     1    1
    14    18    17   ar
    15    18    19   ar
    16    44    43   ar
    17    44    45   ar
    18    31    30   ar
    19    31    32   ar
    20    17    16   ar
    21    43    42   ar
    22    30    29   ar
    23     6     1   ar
    24     6     5   ar
    25     1     2   ar
    26    48    45    1
    27    45    46   ar
    28    42    32    1
    29    42    41   ar
    30    32    33   ar
    31    29    19    1
    32    29    28   ar
    33    19    20   ar
    34    16     5    1
    35    16    15   ar
    36     5     4   ar
    37     8     2    1
    38     2     3   ar
    39    51    49    1
    40    46    41   ar
    41    41    49    1
    42    33    28   ar
    43    28    35    1
    44    24    22    1
    45    20    15   ar
    46    37    35    1
    47    15    22    1
    48     4     3   ar
    49     4    13    1
    50     3     7    1
    51    13    14    1
    52    49    50    1
    53    49    52    1
    54    35    36    1
    55    35    38    1
    56    22    25    1
    57    22    23    1
