@<TRIPOS>MOLECULE
mol_data/opt/m06hf/geoms/mol2/6if6if6if-6if-.out
 54 57 0 0 0
SMALL
GASTEIGER

@<TRIPOS>ATOM
      1 C          -4.3970   -2.2920   -0.0792 C.ar    1  LIG1        0.0392
      2 C          -3.0006   -2.2236   -0.1126 C.ar    1  LIG1       -0.0372
      3 C          -2.3783   -0.9859   -0.1361 C.ar    1  LIG1       -0.0164
      4 C          -3.1683    0.1591   -0.1413 C.ar    1  LIG1        0.1428
      5 C          -4.5605    0.0058   -0.1289 C.ar    1  LIG1        0.1143
      6 N          -5.1430   -1.1905   -0.0867 N.ar    1  LIG1       -0.2482
      7 H          -1.3021   -0.8779   -0.1468 H       1  LIG1        0.0655
      8 H          -2.4146   -3.1329   -0.1107 H       1  LIG1        0.0636
      9 C          -5.1402   -3.6114   -0.0329 C.3     1  LIG1       -0.0223
     10 H          -4.4476   -4.4505   -0.0849 H       1  LIG1        0.0292
     11 H          -5.8359   -3.6642   -0.8700 H       1  LIG1        0.0292
     12 H          -5.7122   -3.6749    0.8933 H       1  LIG1        0.0292
     13 O          -2.5542    1.3689   -0.1545 O.3     1  LIG1       -0.5046
     14 H          -3.1987    2.0722   -0.0041 H       1  LIG1        0.2922
     15 C          -6.4373    1.4195    0.8190 C.ar    1  LIG1        0.0484
     16 C          -5.4435    1.2130   -0.1600 C.ar    1  LIG1        0.0284
     17 C          -5.3016    2.1468   -1.1806 C.ar    1  LIG1       -0.0070
     18 C          -6.1269    3.2679   -1.1968 C.ar    1  LIG1        0.1434
     19 C          -7.0514    3.4220   -0.1614 C.ar    1  LIG1        0.1144
     20 N          -7.2073    2.5015    0.7923 N.ar    1  LIG1       -0.2475
     21 H          -4.5877    2.0054   -1.9841 H       1  LIG1        0.0662
     22 C          -6.6769    0.4336    1.9436 C.3     1  LIG1       -0.0217
     23 H          -5.7431    0.2155    2.4647 H       1  LIG1        0.0293
     24 H          -7.0611   -0.5027    1.5402 H       1  LIG1        0.0293
     25 H          -7.3928    0.8775    2.6313 H       1  LIG1        0.0293
     26 O          -6.0082    4.1464   -2.2226 O.3     1  LIG1       -0.5046
     27 H          -6.7347    4.7842   -2.1950 H       1  LIG1        0.2922
     28 C          -7.4602    5.9248   -0.0623 C.ar    1  LIG1        0.0484
     29 C          -7.9532    4.6129   -0.1268 C.ar    1  LIG1        0.0284
     30 C          -9.3321    4.4179   -0.1316 C.ar    1  LIG1       -0.0070
     31 C         -10.1780    5.5155   -0.1138 C.ar    1  LIG1        0.1434
     32 C          -9.6092    6.8025   -0.1041 C.ar    1  LIG1        0.1144
     33 N          -8.2915    6.9675   -0.0686 N.ar    1  LIG1       -0.2475
     34 H          -9.7261    3.4070   -0.1365 H       1  LIG1        0.0662
     35 C          -5.9813    6.2378    0.0815 C.3     1  LIG1       -0.0217
     36 H          -5.8908    7.2901    0.3411 H       1  LIG1        0.0293
     37 H          -5.4353    6.0443   -0.8434 H       1  LIG1        0.0293
     38 H          -5.5465    5.6224    0.8705 H       1  LIG1        0.0293
     39 O         -11.5326    5.3968   -0.1116 O.3     1  LIG1       -0.5046
     40 H         -11.7915    4.4798    0.0309 H       1  LIG1        0.2922
     41 C         -10.1634    9.1317    0.7000 C.ar    1  LIG1        0.0477
     42 C         -10.4558    8.0323   -0.1230 C.ar    1  LIG1        0.0284
     43 C         -11.5406    8.1093   -0.9959 C.ar    1  LIG1       -0.0077
     44 C         -12.2903    9.2744   -1.0374 C.ar    1  LIG1        0.1355
     45 C         -11.9264   10.3218   -0.1936 C.ar    1  LIG1        0.0693
     46 N         -10.9037   10.2418    0.6454 N.ar    1  LIG1       -0.2559
     47 H         -11.7911    7.2642   -1.6270 H       1  LIG1        0.0662
     48 H         -12.4998   11.2408   -0.2109 H       1  LIG1        0.0867
     49 C          -9.0288    9.1466    1.7058 C.3     1  LIG1       -0.0217
     50 H          -9.2189    9.9656    2.3957 H       1  LIG1        0.0293
     51 H          -8.0771    9.3007    1.1978 H       1  LIG1        0.0293
     52 H          -8.9713    8.2020    2.2473 H       1  LIG1        0.0293
     53 O         -13.3619    9.4586   -1.8560 O.3     1  LIG1       -0.5052
     54 H         -13.5407    8.6606   -2.3640 H       1  LIG1        0.2922
@<TRIPOS>BOND
     1    54    53    1
     2    26    27    1
     3    26    18    1
     4    21    17    1
     5    53    44    1
     6    47    43    1
     7    18    17   ar
     8    18    19   ar
     9    17    16   ar
    10    44    43   ar
    11    44    45   ar
    12    43    42   ar
    13    11     9    1
    14    37    35    1
    15    48    45    1
    16    45    46   ar
    17    19    29    1
    18    19    20   ar
    19    16     5    1
    20    16    15   ar
    21    13     4    1
    22    13    14    1
    23     7     3    1
    24     4     3   ar
    25     4     5   ar
    26    34    30    1
    27     3     2   ar
    28    30    29   ar
    29    30    31   ar
    30     5     6   ar
    31    29    28   ar
    32    42    32    1
    33    42    41   ar
    34    31    39    1
    35    31    32   ar
    36     2     8    1
    37     2     1   ar
    38    39    40    1
    39    32    33   ar
    40     6     1   ar
    41    10     9    1
    42     1     9    1
    43    33    28   ar
    44    28    35    1
    45     9    12    1
    46    35    36    1
    47    35    38    1
    48    46    41   ar
    49    41    49    1
    50    20    15   ar
    51    15    22    1
    52    51    49    1
    53    24    22    1
    54    49    52    1
    55    49    50    1
    56    22    23    1
    57    22    25    1
