@<TRIPOS>MOLECULE
mol_data/opt/m06hf/geoms/mol2/6if6if6if6if-.out
 54 57 0 0 0
SMALL
GASTEIGER

@<TRIPOS>ATOM
      1 C          -3.9779   -2.0173   -0.8344 C.ar    1  LIG1        0.0392
      2 C          -2.9149   -2.1481    0.0647 C.ar    1  LIG1       -0.0372
      3 C          -2.6932   -1.1569    1.0074 C.ar    1  LIG1       -0.0164
      4 C          -3.5331   -0.0482    1.0219 C.ar    1  LIG1        0.1428
      5 C          -4.5617    0.0188    0.0735 C.ar    1  LIG1        0.1143
      6 N          -4.7733   -0.9510   -0.8132 N.ar    1  LIG1       -0.2482
      7 H          -1.8956   -1.2181    1.7356 H       1  LIG1        0.0655
      8 H          -2.2789   -3.0224    0.0264 H       1  LIG1        0.0636
      9 C          -4.2896   -3.0713   -1.8771 C.3     1  LIG1       -0.0223
     10 H          -3.5699   -3.8876   -1.8335 H       1  LIG1        0.0292
     11 H          -4.2646   -2.6192   -2.8683 H       1  LIG1        0.0292
     12 H          -5.2918   -3.4655   -1.7056 H       1  LIG1        0.0292
     13 O          -3.3211    0.9123    1.9568 O.3     1  LIG1       -0.5046
     14 H          -4.0507    1.5452    1.9551 H       1  LIG1        0.2922
     15 C          -6.8736    1.0495    0.1108 C.ar    1  LIG1        0.0484
     16 C          -5.4737    1.2040    0.0386 C.ar    1  LIG1        0.0284
     17 C          -4.9439    2.4849   -0.0611 C.ar    1  LIG1       -0.0070
     18 C          -5.8058    3.5788   -0.1003 C.ar    1  LIG1        0.1434
     19 C          -7.1803    3.3366   -0.0437 C.ar    1  LIG1        0.1144
     20 N          -7.6783    2.1042    0.0712 N.ar    1  LIG1       -0.2475
     21 H          -3.8752    2.6551   -0.1286 H       1  LIG1        0.0662
     22 C          -7.5285   -0.3104    0.2320 C.3     1  LIG1       -0.0217
     23 H          -7.0533   -0.8970    1.0200 H       1  LIG1        0.0293
     24 H          -7.4185   -0.8571   -0.7042 H       1  LIG1        0.0293
     25 H          -8.5810   -0.1574    0.4596 H       1  LIG1        0.0293
     26 O          -5.2681    4.8194   -0.1862 O.3     1  LIG1       -0.5046
     27 H          -5.9585    5.4886   -0.0897 H       1  LIG1        0.2922
     28 C          -9.0966    4.6839    0.9159 C.ar    1  LIG1        0.0484
     29 C          -8.1399    4.4817   -0.0990 C.ar    1  LIG1        0.0284
     30 C          -8.0976    5.3675   -1.1707 C.ar    1  LIG1       -0.0070
     31 C          -8.9817    6.4422   -1.1982 C.ar    1  LIG1        0.1434
     32 C          -9.8624    6.6011   -0.1253 C.ar    1  LIG1        0.1144
     33 N          -9.9237    5.7229    0.8771 N.ar    1  LIG1       -0.2475
     34 H          -7.4153    5.2226   -2.0008 H       1  LIG1        0.0662
     35 C          -9.2298    3.7429    2.0952 C.3     1  LIG1       -0.0217
     36 H          -8.2633    3.6014    2.5823 H       1  LIG1        0.0293
     37 H          -9.5789    2.7682    1.7551 H       1  LIG1        0.0293
     38 H          -9.9383    4.1804    2.7944 H       1  LIG1        0.0293
     39 O          -8.9577    7.2770   -2.2652 O.3     1  LIG1       -0.5046
     40 H          -9.7050    7.8895   -2.2186 H       1  LIG1        0.2922
     41 C         -10.3634    9.0815   -0.0921 C.ar    1  LIG1        0.0477
     42 C         -10.8146    7.7535   -0.0991 C.ar    1  LIG1        0.0284
     43 C         -12.1854    7.4963   -0.0565 C.ar    1  LIG1       -0.0077
     44 C         -13.0635    8.5677   -0.0414 C.ar    1  LIG1        0.1355
     45 C         -12.5304    9.8600   -0.0772 C.ar    1  LIG1        0.0693
     46 N         -11.2296   10.1012   -0.0925 N.ar    1  LIG1       -0.2559
     47 H         -12.5364    6.4704   -0.0270 H       1  LIG1        0.0662
     48 H         -13.2057   10.7071   -0.0777 H       1  LIG1        0.0867
     49 C          -8.8904    9.4429   -0.0192 C.3     1  LIG1       -0.0217
     50 H          -8.8242   10.5056    0.2007 H       1  LIG1        0.0293
     51 H          -8.3762    9.2348   -0.9592 H       1  LIG1        0.0293
     52 H          -8.4039    8.8700    0.7718 H       1  LIG1        0.0293
     53 O         -14.4150    8.4472   -0.0012 O.3     1  LIG1       -0.5052
     54 H         -14.6745    7.5260    0.1053 H       1  LIG1        0.2922
@<TRIPOS>BOND
     1    11     9    1
     2    39    40    1
     3    39    31    1
     4    34    30    1
     5     9    10    1
     6     9    12    1
     7     9     1    1
     8    31    30   ar
     9    31    32   ar
    10    30    29   ar
    11    51    49    1
    12     1     6   ar
    13     1     2   ar
    14     6     5   ar
    15    24    22    1
    16    26    18    1
    17    26    27    1
    18    21    17    1
    19    32    42    1
    20    32    33   ar
    21    18    17   ar
    22    18    19   ar
    23    42    41   ar
    24    42    43   ar
    25    29    19    1
    26    29    28   ar
    27    46    41   ar
    28    46    45   ar
    29    41    49    1
    30    48    45    1
    31    45    44   ar
    32    17    16   ar
    33    43    44   ar
    34    43    47    1
    35    19    20   ar
    36    44    53    1
    37    49    50    1
    38    49    52    1
    39    53    54    1
    40     8     2    1
    41    16     5    1
    42    16    15   ar
    43     2     3   ar
    44    20    15   ar
    45     5     4   ar
    46    15    22    1
    47    22    25    1
    48    22    23    1
    49    33    28   ar
    50    28    35    1
    51     3     4   ar
    52     3     7    1
    53     4    13    1
    54    37    35    1
    55    14    13    1
    56    35    36    1
    57    35    38    1
