@<TRIPOS>MOLECULE
mol_data/opt/m06hf/geoms/mol2/6ig.out
 15 15 0 0 0
SMALL
GASTEIGER

@<TRIPOS>ATOM
      1 C          -4.5557   -2.0309   -0.0059 C.ar    1  LIG1        0.0383
      2 C          -3.1634   -2.0017    0.0788 C.ar    1  LIG1       -0.0396
      3 C          -2.5053   -0.7785    0.0838 C.ar    1  LIG1       -0.0454
      4 C          -3.2573    0.3899    0.0036 C.ar    1  LIG1        0.0229
      5 C          -4.6461    0.2617   -0.0780 C.ar    1  LIG1        0.0410
      6 N          -5.2723   -0.9076   -0.0826 N.ar    1  LIG1       -0.2591
      7 H          -1.4251   -0.7335    0.1488 H       1  LIG1        0.0629
      8 H          -2.6040   -2.9253    0.1400 H       1  LIG1        0.0636
      9 H          -5.2766    1.1418   -0.1423 H       1  LIG1        0.0841
     10 C          -5.3377   -3.3276   -0.0164 C.3     1  LIG1       -0.0224
     11 H          -4.6726   -4.1873    0.0497 H       1  LIG1        0.0292
     12 H          -5.9198   -3.3893   -0.9360 H       1  LIG1        0.0292
     13 H          -6.0285   -3.3380    0.8268 H       1  LIG1        0.0292
     14 S          -2.4259    1.9601    0.0092 S.3     1  LIG1       -0.1412
     15 H          -3.5323    2.7054   -0.0805 H       1  LIG1        0.1072
@<TRIPOS>BOND
     1    12    10    1
     2     9     5    1
     3     6     5   ar
     4     6     1   ar
     5    15    14    1
     6     5     4   ar
     7    10     1    1
     8    10    11    1
     9    10    13    1
    10     1     2   ar
    11     4    14    1
    12     4     3   ar
    13     2     3   ar
    14     2     8    1
    15     3     7    1
