@<TRIPOS>MOLECULE
mol_data/opt/m06hf/geoms/mol2/6ih6ih6ih6ih-.out
 58 61 0 0 0
SMALL
GASTEIGER

@<TRIPOS>ATOM
      1 C          -3.5031   -1.5743    1.1752 C.ar    1  LIG1        0.0390
      2 C          -2.8511   -2.1143    0.0661 C.ar    1  LIG1       -0.0389
      3 C          -3.0538   -1.5487   -1.1834 C.ar    1  LIG1       -0.0373
      4 C          -3.8999   -0.4469   -1.3147 C.ar    1  LIG1        0.0510
      5 C          -4.4973    0.0446   -0.1373 C.ar    1  LIG1        0.0936
      6 N          -4.3033   -0.5176    1.0513 N.ar    1  LIG1       -0.2500
      7 H          -2.5665   -1.9581   -2.0607 H       1  LIG1        0.0637
      8 H          -2.2009   -2.9713    0.1819 H       1  LIG1        0.0636
      9 C          -3.3429   -2.1426    2.5703 C.3     1  LIG1       -0.0223
     10 H          -2.7480   -3.0550    2.5536 H       1  LIG1        0.0292
     11 H          -4.3267   -2.3602    2.9865 H       1  LIG1        0.0292
     12 H          -2.8556   -1.4076    3.2114 H       1  LIG1        0.0292
     13 N          -4.1164    0.1603   -2.5546 N.pl3   1  LIG1       -0.3563
     14 H          -3.9401   -0.4444   -3.3453 H       1  LIG1        0.1424
     15 H          -5.0064    0.6369   -2.6306 H       1  LIG1        0.1424
     16 C          -6.6865    1.2002    0.3853 C.ar    1  LIG1        0.0482
     17 C          -5.3986    1.2383   -0.1780 C.ar    1  LIG1        0.0249
     18 C          -4.9627    2.4176   -0.7695 C.ar    1  LIG1       -0.0280
     19 C          -5.7886    3.5435   -0.7887 C.ar    1  LIG1        0.0516
     20 C          -7.0513    3.4156   -0.1878 C.ar    1  LIG1        0.0936
     21 N          -7.4670    2.2750    0.3607 N.ar    1  LIG1       -0.2493
     22 H          -3.9747    2.4606   -1.2162 H       1  LIG1        0.0644
     23 C          -7.2557   -0.0425    1.0384 C.3     1  LIG1       -0.0217
     24 H          -6.7538   -0.2260    1.9880 H       1  LIG1        0.0293
     25 H          -7.1009   -0.9172    0.4045 H       1  LIG1        0.0293
     26 H          -8.3189    0.1218    1.1994 H       1  LIG1        0.0293
     27 N          -5.3553    4.7476   -1.3497 N.pl3   1  LIG1       -0.3563
     28 H          -4.6167    4.6429   -2.0316 H       1  LIG1        0.1424
     29 H          -6.1042    5.3434   -1.6795 H       1  LIG1        0.1424
     30 C          -9.3200    4.4505   -0.6115 C.ar    1  LIG1        0.0482
     31 C          -8.0001    4.5713   -0.1431 C.ar    1  LIG1        0.0249
     32 C          -7.5818    5.7904    0.3774 C.ar    1  LIG1       -0.0280
     33 C          -8.4697    6.8667    0.4424 C.ar    1  LIG1        0.0516
     34 C          -9.7754    6.6428   -0.0240 C.ar    1  LIG1        0.0936
     35 N         -10.1596    5.4797   -0.5478 N.ar    1  LIG1       -0.2493
     36 H          -6.5633    5.9028    0.7341 H       1  LIG1        0.0644
     37 C          -9.8581    3.1671   -1.2099 C.3     1  LIG1       -0.0217
     38 H          -9.9585    2.4095   -0.4330 H       1  LIG1        0.0293
     39 H          -9.1765    2.7783   -1.9687 H       1  LIG1        0.0293
     40 H         -10.8269    3.3864   -1.6529 H       1  LIG1        0.0293
     41 N          -8.0850    8.0944    0.9739 N.pl3   1  LIG1       -0.3563
     42 H          -7.0943    8.2863    0.9395 H       1  LIG1        0.1424
     43 H          -8.6544    8.8783    0.6801 H       1  LIG1        0.1424
     44 C         -11.2645    8.3010    1.1856 C.ar    1  LIG1        0.0475
     45 C         -10.7892    7.7445   -0.0129 C.ar    1  LIG1        0.0249
     46 C         -11.2902    8.2066   -1.2251 C.ar    1  LIG1       -0.0286
     47 C         -12.2291    9.2371   -1.2354 C.ar    1  LIG1        0.0435
     48 C         -12.6173    9.7464    0.0087 C.ar    1  LIG1        0.0485
     49 N         -12.1597    9.2903    1.1668 N.ar    1  LIG1       -0.2577
     50 H         -10.9553    7.7502   -2.1494 H       1  LIG1        0.0643
     51 H         -13.3462   10.5496    0.0585 H       1  LIG1        0.0848
     52 C         -10.8362    7.7821    2.5438 C.3     1  LIG1       -0.0217
     53 H         -11.4427    8.2822    3.2957 H       1  LIG1        0.0293
     54 H          -9.7782    7.9834    2.7224 H       1  LIG1        0.0293
     55 H         -10.9952    6.7037    2.5983 H       1  LIG1        0.0293
     56 N         -12.7983    9.7108   -2.4184 N.pl3   1  LIG1       -0.3568
     57 H         -13.1781   10.6455   -2.3615 H       1  LIG1        0.1424
     58 H         -12.2319    9.5812   -3.2445 H       1  LIG1        0.1424
@<TRIPOS>BOND
     1    14    13    1
     2    58    56    1
     3    15    13    1
     4    13     4    1
     5    56    57    1
     6    56    47    1
     7    50    46    1
     8     7     3    1
     9    28    27    1
    10    39    37    1
    11    29    27    1
    12    40    37    1
    13    27    19    1
    14     4     3   ar
    15     4     5   ar
    16    47    46   ar
    17    47    48   ar
    18    46    45   ar
    19    22    18    1
    20    37    30    1
    21    37    38    1
    22     3     2   ar
    23    19    18   ar
    24    19    20   ar
    25    18    17   ar
    26    30    35   ar
    27    30    31   ar
    28    35    34   ar
    29    20    31    1
    30    20    21   ar
    31    17     5    1
    32    17    16   ar
    33    31    32   ar
    34     5     6   ar
    35    34    45    1
    36    34    33   ar
    37    45    44   ar
    38    48    51    1
    39    48    49   ar
    40     2     8    1
    41     2     1   ar
    42    21    16   ar
    43    32    33   ar
    44    32    36    1
    45    16    23    1
    46    25    23    1
    47    33    41    1
    48    43    41    1
    49    42    41    1
    50    23    26    1
    51    23    24    1
    52     6     1   ar
    53    49    44   ar
    54     1     9    1
    55    44    52    1
    56    52    55    1
    57    52    54    1
    58    52    53    1
    59    10     9    1
    60     9    11    1
    61     9    12    1
