@<TRIPOS>MOLECULE
mol_data/opt/m06hf/geoms/mol2/6ih6ih6ih-6ih.out
 58 61 0 0 0
SMALL
GASTEIGER

@<TRIPOS>ATOM
      1 C          -3.9395   -1.8891    0.9930 C.ar    1  LIG1        0.0390
      2 C          -2.9609   -2.1908    0.0454 C.ar    1  LIG1       -0.0389
      3 C          -2.7719   -1.3386   -1.0320 C.ar    1  LIG1       -0.0373
      4 C          -3.5556   -0.1900   -1.1502 C.ar    1  LIG1        0.0510
      5 C          -4.5036    0.0445   -0.1354 C.ar    1  LIG1        0.0936
      6 N          -4.6822   -0.7896    0.8838 N.ar    1  LIG1       -0.2500
      7 H          -2.0227   -1.5569   -1.7840 H       1  LIG1        0.0637
      8 H          -2.3613   -3.0855    0.1493 H       1  LIG1        0.0636
      9 C          -4.2196   -2.7781    2.1872 C.3     1  LIG1       -0.0223
     10 H          -3.5537   -3.6402    2.1970 H       1  LIG1        0.0292
     11 H          -5.2537   -3.1223    2.1484 H       1  LIG1        0.0292
     12 H          -4.0846   -2.2066    3.1053 H       1  LIG1        0.0292
     13 N          -3.3803    0.7050   -2.2091 N.pl3   1  LIG1       -0.3563
     14 H          -2.9754    0.2884   -3.0367 H       1  LIG1        0.1424
     15 H          -4.2031    1.2546   -2.4227 H       1  LIG1        0.1424
     16 C          -6.7680    1.1687   -0.0901 C.ar    1  LIG1        0.0482
     17 C          -5.3678    1.2662   -0.1655 C.ar    1  LIG1        0.0249
     18 C          -4.7856    2.5248   -0.2563 C.ar    1  LIG1       -0.0280
     19 C          -5.5871    3.6683   -0.2520 C.ar    1  LIG1        0.0516
     20 C          -6.9732    3.4725   -0.1432 C.ar    1  LIG1        0.0936
     21 N          -7.5256    2.2619   -0.0893 N.ar    1  LIG1       -0.2493
     22 H          -3.7067    2.6157   -0.3275 H       1  LIG1        0.0644
     23 C          -7.4874   -0.1618   -0.0051 C.3     1  LIG1       -0.0217
     24 H          -7.3152   -0.6132    0.9717 H       1  LIG1        0.0293
     25 H          -7.1143   -0.8534   -0.7628 H       1  LIG1        0.0293
     26 H          -8.5489    0.0223   -0.1542 H       1  LIG1        0.0293
     27 N          -5.0349    4.9452   -0.3174 N.pl3   1  LIG1       -0.3563
     28 H          -4.1244    4.9976   -0.7508 H       1  LIG1        0.1424
     29 H          -5.6720    5.6631   -0.6382 H       1  LIG1        0.1424
     30 C          -7.9237    5.5674    0.9208 C.ar    1  LIG1        0.0482
     31 C          -7.9057    4.6440   -0.1387 C.ar    1  LIG1        0.0249
     32 C          -8.7839    4.8177   -1.1993 C.ar    1  LIG1       -0.0280
     33 C          -9.6551    5.9080   -1.2133 C.ar    1  LIG1        0.0516
     34 C          -9.6124    6.7716   -0.1044 C.ar    1  LIG1        0.0936
     35 N          -8.7635    6.6006    0.9066 N.ar    1  LIG1       -0.2493
     36 H          -8.7883    4.1006   -2.0125 H       1  LIG1        0.0644
     37 C          -7.0362    5.4122    2.1394 C.3     1  LIG1       -0.0217
     38 H          -7.3331    6.1644    2.8667 H       1  LIG1        0.0293
     39 H          -5.9857    5.5427    1.8720 H       1  LIG1        0.0293
     40 H          -7.1610    4.4155    2.5663 H       1  LIG1        0.0293
     41 N         -10.5438    6.1159   -2.2647 N.pl3   1  LIG1       -0.3563
     42 H         -10.8725    7.0688   -2.3580 H       1  LIG1        0.1424
     43 H         -10.2727    5.6998   -3.1437 H       1  LIG1        0.1424
     44 C         -11.9028    7.8522    0.0298 C.ar    1  LIG1        0.0475
     45 C         -10.5050    7.9721   -0.0387 C.ar    1  LIG1        0.0249
     46 C          -9.9279    9.2369   -0.0159 C.ar    1  LIG1       -0.0286
     47 C         -10.7424   10.3669    0.0394 C.ar    1  LIG1        0.0435
     48 C         -12.1240   10.1448    0.0711 C.ar    1  LIG1        0.0485
     49 N         -12.6756    8.9390    0.0748 N.ar    1  LIG1       -0.2577
     50 H          -8.8480    9.3302   -0.0250 H       1  LIG1        0.0643
     51 H         -12.8049   10.9894    0.1134 H       1  LIG1        0.0848
     52 C         -12.5972    6.5072    0.1138 C.3     1  LIG1       -0.0217
     53 H         -12.1879    5.9284    0.9436 H       1  LIG1        0.0293
     54 H         -12.4567    5.9370   -0.8066 H       1  LIG1        0.0293
     55 H         -13.6563    6.6914    0.2807 H       1  LIG1        0.0293
     56 N         -10.2175   11.6573    0.1153 N.pl3   1  LIG1       -0.3568
     57 H          -9.2890   11.7645   -0.2665 H       1  LIG1        0.1424
     58 H         -10.8426   12.3898   -0.1905 H       1  LIG1        0.1424
@<TRIPOS>BOND
     1    43    41    1
     2    14    13    1
     3    15    13    1
     4    42    41    1
     5    41    33    1
     6    13     4    1
     7    36    32    1
     8     7     3    1
     9    33    32   ar
    10    33    34   ar
    11    32    31   ar
    12     4     3   ar
    13     4     5   ar
    14     3     2   ar
    15    54    52    1
    16    25    23    1
    17    28    27    1
    18    29    27    1
    19    22    18    1
    20    27    19    1
    21    57    56    1
    22    18    19   ar
    23    18    17   ar
    24    19    20   ar
    25    58    56    1
    26    17     5    1
    27    17    16   ar
    28    26    23    1
    29    20    31    1
    30    20    21   ar
    31    31    30   ar
    32     5     6   ar
    33    34    45    1
    34    34    35   ar
    35    16    21   ar
    36    16    23    1
    37    45    46   ar
    38    45    44   ar
    39    50    46    1
    40    46    47   ar
    41    23    24    1
    42    44    49   ar
    43    44    52    1
    44    47    48   ar
    45    47    56    1
    46     2     8    1
    47     2     1   ar
    48    48    49   ar
    49    48    51    1
    50    52    55    1
    51    52    53    1
    52     6     1   ar
    53    35    30   ar
    54    30    37    1
    55     1     9    1
    56    39    37    1
    57    37    40    1
    58    37    38    1
    59    11     9    1
    60     9    10    1
    61     9    12    1
