@<TRIPOS>MOLECULE
mol_data/opt/m06hf/geoms/mol2/6ih6ih-6ih-6ih.out
 58 61 0 0 0
SMALL
GASTEIGER

@<TRIPOS>ATOM
      1 C          -4.4878   -2.2504   -0.0014 C.ar    1  LIG1        0.0390
      2 C          -3.0932   -2.2828   -0.0164 C.ar    1  LIG1       -0.0389
      3 C          -2.3835   -1.0929   -0.0660 C.ar    1  LIG1       -0.0373
      4 C          -3.0739    0.1197   -0.0907 C.ar    1  LIG1        0.0510
      5 C          -4.4798    0.0566   -0.0335 C.ar    1  LIG1        0.0936
      6 N          -5.1477   -1.0929   -0.0141 N.ar    1  LIG1       -0.2500
      7 H          -1.3002   -1.0950   -0.0941 H       1  LIG1        0.0637
      8 H          -2.5718   -3.2308    0.0006 H       1  LIG1        0.0636
      9 C          -5.3287   -3.5099    0.0350 C.3     1  LIG1       -0.0223
     10 H          -4.7045   -4.3976   -0.0616 H       1  LIG1        0.0292
     11 H          -6.0520   -3.4858   -0.7798 H       1  LIG1        0.0292
     12 H          -5.8768   -3.5576    0.9764 H       1  LIG1        0.0292
     13 N          -2.4026    1.3387   -0.1422 N.pl3   1  LIG1       -0.3563
     14 H          -1.4767    1.3006   -0.5441 H       1  LIG1        0.1424
     15 H          -2.9549    2.1105   -0.4945 H       1  LIG1        0.1424
     16 C          -5.2307    2.2723    0.9581 C.ar    1  LIG1        0.0482
     17 C          -5.2976    1.3105   -0.0642 C.ar    1  LIG1        0.0249
     18 C          -6.1638    1.5198   -1.1292 C.ar    1  LIG1       -0.0280
     19 C          -6.9287    2.6848   -1.1922 C.ar    1  LIG1        0.0516
     20 C          -6.7739    3.6040   -0.1387 C.ar    1  LIG1        0.0936
     21 N          -5.9547    3.3871    0.8871 N.ar    1  LIG1       -0.2493
     22 H          -6.2411    0.7676   -1.9062 H       1  LIG1        0.0644
     23 C          -4.3885    2.0764    2.2033 C.3     1  LIG1       -0.0217
     24 H          -4.6191    2.8867    2.8912 H       1  LIG1        0.0293
     25 H          -3.3247    2.0830    1.9585 H       1  LIG1        0.0293
     26 H          -4.6292    1.1184    2.6676 H       1  LIG1        0.0293
     27 N          -7.8262    2.9131   -2.2354 N.pl3   1  LIG1       -0.3563
     28 H          -8.0149    3.8907   -2.4165 H       1  LIG1        0.1424
     29 H          -7.6305    2.3906   -3.0776 H       1  LIG1        0.1424
     30 C          -6.8810    6.1253   -0.0528 C.ar    1  LIG1        0.0482
     31 C          -7.5421    4.8881   -0.1310 C.ar    1  LIG1        0.0249
     32 C          -8.9297    4.8700   -0.2030 C.ar    1  LIG1       -0.0280
     33 C          -9.6460    6.0689   -0.1763 C.ar    1  LIG1        0.0516
     34 C          -8.8996    7.2542   -0.0689 C.ar    1  LIG1        0.0936
     35 N          -7.5683    7.2636   -0.0335 N.ar    1  LIG1       -0.2493
     36 H          -9.4528    3.9225   -0.2800 H       1  LIG1        0.0644
     37 C          -5.3717    6.2345    0.0110 C.3     1  LIG1       -0.0217
     38 H          -5.1039    7.2771   -0.1452 H       1  LIG1        0.0293
     39 H          -4.9063    5.6080   -0.7524 H       1  LIG1        0.0293
     40 H          -5.0154    5.8965    0.9840 H       1  LIG1        0.0293
     41 N         -11.0362    6.0875   -0.2226 N.pl3   1  LIG1       -0.3563
     42 H         -11.4405    6.9597   -0.5384 H       1  LIG1        0.1424
     43 H         -11.4674    5.2715   -0.6316 H       1  LIG1        0.1424
     44 C         -10.4212    8.9672    1.0120 C.ar    1  LIG1        0.0475
     45 C          -9.5860    8.5846   -0.0497 C.ar    1  LIG1        0.0249
     46 C          -9.3699    9.4699   -1.0999 C.ar    1  LIG1       -0.0286
     47 C         -10.0081   10.7094   -1.0998 C.ar    1  LIG1        0.0435
     48 C         -10.8420   10.9871   -0.0111 C.ar    1  LIG1        0.0485
     49 N         -11.0316   10.1535    1.0027 N.ar    1  LIG1       -0.2577
     50 H          -8.6947    9.1925   -1.9015 H       1  LIG1        0.0643
     51 H         -11.3623   11.9386    0.0402 H       1  LIG1        0.0848
     52 C         -10.6327    8.0893    2.2293 C.3     1  LIG1       -0.0217
     53 H          -9.6696    7.7800    2.6388 H       1  LIG1        0.0293
     54 H         -11.1983    7.1931    1.9668 H       1  LIG1        0.0293
     55 H         -11.1793    8.6706    2.9684 H       1  LIG1        0.0293
     56 N          -9.7915   11.6555   -2.1025 N.pl3   1  LIG1       -0.3568
     57 H          -9.4959   11.2760   -2.9904 H       1  LIG1        0.1424
     58 H         -10.5275   12.3396   -2.2074 H       1  LIG1        0.1424
@<TRIPOS>BOND
     1    29    27    1
     2    57    56    1
     3    28    27    1
     4    27    19    1
     5    58    56    1
     6    56    47    1
     7    22    18    1
     8    50    46    1
     9    19    18   ar
    10    19    20   ar
    11    18    17   ar
    12    46    47   ar
    13    46    45   ar
    14    47    48   ar
    15    11     9    1
    16    39    37    1
    17    43    41    1
    18    14    13    1
    19    42    41    1
    20    15    13    1
    21    36    32    1
    22    41    33    1
    23    32    33   ar
    24    32    31   ar
    25    33    34   ar
    26    38    37    1
    27    13     4    1
    28    20    31    1
    29    20    21   ar
    30    31    30   ar
    31     7     3    1
    32     4     3   ar
    33     4     5   ar
    34    34    45    1
    35    34    35   ar
    36     3     2   ar
    37    17     5    1
    38    17    16   ar
    39    10     9    1
    40    30    35   ar
    41    30    37    1
    42    45    44   ar
    43     5     6   ar
    44     2     1   ar
    45     2     8    1
    46     6     1   ar
    47    48    51    1
    48    48    49   ar
    49     1     9    1
    50    37    40    1
    51     9    12    1
    52    21    16   ar
    53    16    23    1
    54    49    44   ar
    55    44    52    1
    56    25    23    1
    57    54    52    1
    58    23    26    1
    59    23    24    1
    60    52    53    1
    61    52    55    1
