@<TRIPOS>MOLECULE
mol_data/opt/m06hf/geoms/mol2/6ih6dl12dh-6hh.out
 53 56 0 0 0
SMALL
GASTEIGER

@<TRIPOS>ATOM
      1 C          -4.3103   -2.1496    0.5673 C.ar    1  LIG1        0.0390
      2 C          -2.9901   -2.2299    0.1158 C.ar    1  LIG1       -0.0389
      3 C          -2.3922   -1.1149   -0.4490 C.ar    1  LIG1       -0.0373
      4 C          -3.1108    0.0777   -0.5592 C.ar    1  LIG1        0.0510
      5 C          -4.4202    0.0683   -0.0518 C.ar    1  LIG1        0.0946
      6 N          -4.9855   -1.0087    0.4816 N.ar    1  LIG1       -0.2499
      7 H          -1.3750   -1.1640   -0.8195 H       1  LIG1        0.0637
      8 H          -2.4454   -3.1608    0.1969 H       1  LIG1        0.0636
      9 C          -5.0460   -3.3251    1.1741 C.3     1  LIG1       -0.0223
     10 H          -4.4784   -4.2462    1.0508 H       1  LIG1        0.0292
     11 H          -6.0151   -3.4215    0.6851 H       1  LIG1        0.0292
     12 H          -5.2120   -3.1440    2.2367 H       1  LIG1        0.0292
     13 N          -2.5415    1.2307   -1.1141 N.pl3   1  LIG1       -0.3563
     14 H          -1.7008    1.0488   -1.6464 H       1  LIG1        0.1424
     15 H          -3.1928    1.8012   -1.6404 H       1  LIG1        0.1424
     16 C          -6.6218    1.2215   -0.4659 C.ar    1  LIG1        0.1503
     17 C          -5.2782    1.2885   -0.0819 C.ar    1  LIG1        0.0415
     18 C          -4.7851    2.5289    0.3282 C.ar    1  LIG1       -0.0057
     19 C          -5.6371    3.6265    0.3437 C.ar    1  LIG1        0.1497
     20 C          -6.9668    3.4500   -0.0852 C.ar    1  LIG1        0.1502
     21 N          -7.4345    2.2731   -0.4711 N.ar    1  LIG1       -0.2288
     22 H          -3.7526    2.6082    0.6437 H       1  LIG1        0.0662
     23 N          -7.7028   -0.9753   -1.3537 N.1     1  LIG1       -0.1893
     24 C          -7.2118   -0.0249   -0.9416 C.1     1  LIG1        0.1198
     25 O          -5.3041    4.8557    0.7497 O.3     1  LIG1       -0.4928
     26 C          -3.9367    5.1721    0.9736 C.3     1  LIG1        0.0789
     27 H          -3.9139    6.2474    1.1232 H       1  LIG1        0.0660
     28 H          -3.5694    4.6528    1.8609 H       1  LIG1        0.0660
     29 H          -3.3405    4.9033    0.0987 H       1  LIG1        0.0660
     30 C          -7.9195    4.5727   -0.1248 C.ar    1  LIG1        0.1766
     31 C          -7.8362    5.9390   -0.2347 C.ar    1  LIG1        0.1203
     32 C          -9.1872    6.4316   -0.3123 C.ar    1  LIG1        0.0894
     33 C          -9.9870    5.3286   -0.2274 C.ar    1  LIG1        0.1609
     34 O          -9.2056    4.2228   -0.1164 O.2     1  LIG1       -0.4498
     35 N          -5.8733    7.5859   -0.5115 N.1     1  LIG1       -0.1907
     36 C          -6.7007    6.8018   -0.3680 C.1     1  LIG1        0.1049
     37 N          -9.5628    7.7706   -0.4276 N.pl3   1  LIG1       -0.3540
     38 H          -8.7928    8.3707   -0.6995 H       1  LIG1        0.1425
     39 H         -10.3633    7.9007   -1.0362 H       1  LIG1        0.1425
     40 C         -12.0674    4.0314   -0.8008 C.ar    1  LIG1        0.1270
     41 C         -11.4406    5.1688   -0.2368 C.ar    1  LIG1        0.0603
     42 C         -12.2385    6.1761    0.2984 C.ar    1  LIG1       -0.0255
     43 C         -13.6268    6.0748    0.2474 C.ar    1  LIG1        0.0437
     44 C         -14.1416    4.9188   -0.3399 C.ar    1  LIG1        0.0503
     45 N         -13.3947    3.9391   -0.8334 N.ar    1  LIG1       -0.2382
     46 H         -11.7639    7.0319    0.7682 H       1  LIG1        0.0644
     47 H         -15.2163    4.7779   -0.4026 H       1  LIG1        0.0849
     48 N         -11.3627    3.0070   -1.3864 N.pl3   1  LIG1       -0.3426
     49 H         -11.9350    2.2109   -1.6246 H       1  LIG1        0.1437
     50 H         -10.4262    2.8065   -1.0683 H       1  LIG1        0.1437
     51 N         -14.4676    7.0442    0.8241 N.pl3   1  LIG1       -0.3568
     52 H         -14.0711    7.9750    0.8247 H       1  LIG1        0.1424
     53 H         -15.3986    7.0565    0.4283 H       1  LIG1        0.1424
@<TRIPOS>BOND
     1    14    13    1
     2    15    13    1
     3    49    48    1
     4    48    50    1
     5    48    40    1
     6    23    24    3
     7    13     4    1
     8    39    37    1
     9    24    16    1
    10    45    40   ar
    11    45    44   ar
    12     7     3    1
    13    40    41   ar
    14    38    37    1
    15     4     3   ar
    16     4     5   ar
    17    35    36    3
    18    21    16   ar
    19    21    20   ar
    20    16    17   ar
    21     3     2   ar
    22    37    32    1
    23    47    44    1
    24    36    31    1
    25    44    43   ar
    26    32    31   ar
    27    32    33   ar
    28    41    33    1
    29    41    42   ar
    30    31    30   ar
    31    33    34   ar
    32    30    34   ar
    33    30    20    1
    34    20    19   ar
    35    17     5    1
    36    17    18   ar
    37     5     6   ar
    38    29    26    1
    39     2     8    1
    40     2     1   ar
    41    43    42   ar
    42    43    51    1
    43    42    46    1
    44    18    19   ar
    45    18    22    1
    46    19    25    1
    47    53    51    1
    48     6     1   ar
    49     1     9    1
    50    11     9    1
    51    25    26    1
    52    51    52    1
    53    26    27    1
    54    26    28    1
    55    10     9    1
    56     9    12    1
