@<TRIPOS>MOLECULE
mol_data/opt/m06hf/geoms/mol2/6ih6ih-4ih6ih.out
 59 62 0 0 0
SMALL
GASTEIGER

@<TRIPOS>ATOM
      1 C          -4.4604   -2.2498    0.0038 C.ar    1  LIG1        0.0390
      2 C          -3.0668   -2.2733   -0.0471 C.ar    1  LIG1       -0.0389
      3 C          -2.3674   -1.0788   -0.1278 C.ar    1  LIG1       -0.0373
      4 C          -3.0671    0.1283   -0.1485 C.ar    1  LIG1        0.0510
      5 C          -4.4707    0.0564   -0.0588 C.ar    1  LIG1        0.0936
      6 N          -5.1293   -1.0973   -0.0070 N.ar    1  LIG1       -0.2500
      7 H          -1.2850   -1.0729   -0.1815 H       1  LIG1        0.0637
      8 H          -2.5386   -3.2175   -0.0324 H       1  LIG1        0.0636
      9 C          -5.2909   -3.5149    0.0797 C.3     1  LIG1       -0.0223
     10 H          -4.6656   -4.3987   -0.0415 H       1  LIG1        0.0292
     11 H          -6.0490   -3.4969   -0.7029 H       1  LIG1        0.0292
     12 H          -5.7975   -3.5640    1.0441 H       1  LIG1        0.0292
     13 N          -2.4059    1.3522   -0.2273 N.pl3   1  LIG1       -0.3563
     14 H          -1.4974    1.3172   -0.6677 H       1  LIG1        0.1424
     15 H          -2.9781    2.1158   -0.5657 H       1  LIG1        0.1424
     16 C          -5.2237    2.2689    0.9345 C.ar    1  LIG1        0.0482
     17 C          -5.2954    1.3060   -0.0857 C.ar    1  LIG1        0.0249
     18 C          -6.1704    1.5133   -1.1436 C.ar    1  LIG1       -0.0280
     19 C          -6.9403    2.6753   -1.2011 C.ar    1  LIG1        0.0515
     20 C          -6.7869    3.5949   -0.1457 C.ar    1  LIG1        0.0922
     21 N          -5.9567    3.3782    0.8719 N.ar    1  LIG1       -0.2494
     22 H          -6.2519    0.7616   -1.9207 H       1  LIG1        0.0644
     23 C          -4.3619    2.0812    2.1678 C.3     1  LIG1       -0.0217
     24 H          -4.5950    2.8859    2.8615 H       1  LIG1        0.0293
     25 H          -3.3015    2.1050    1.9089 H       1  LIG1        0.0293
     26 H          -4.5814    1.1186    2.6330 H       1  LIG1        0.0293
     27 N          -7.8389    2.8961   -2.2444 N.pl3   1  LIG1       -0.3563
     28 H          -8.0693    3.8698   -2.3964 H       1  LIG1        0.1424
     29 H          -7.6184    2.4041   -3.0986 H       1  LIG1        0.1424
     30 C          -6.9034    6.1089    0.0035 C.ar    1  LIG1       -0.0405
     31 C          -7.6913    7.2567    0.0256 C.ar    1  LIG1       -0.0487
     32 C          -7.5632    4.8772   -0.1262 C.ar    1  LIG1        0.0068
     33 C          -9.0830    7.2196   -0.0659 C.ar    1  LIG1        0.0048
     34 H          -7.2157    8.2262    0.1276 H       1  LIG1        0.0627
     35 C          -8.9518    4.8210   -0.2323 C.ar    1  LIG1       -0.0310
     36 C          -9.7307    5.9826   -0.2066 C.ar    1  LIG1        0.0330
     37 H          -9.4355    3.8551   -0.3323 H       1  LIG1        0.0643
     38 C          -5.3935    6.2087    0.1209 C.3     1  LIG1       -0.0391
     39 H          -5.0789    7.2417   -0.0283 H       1  LIG1        0.0278
     40 H          -4.9074    5.5790   -0.6268 H       1  LIG1        0.0278
     41 H          -5.0682    5.8668    1.1029 H       1  LIG1        0.0278
     42 N         -11.1208    5.9081   -0.2785 N.pl3   1  LIG1       -0.3575
     43 H         -11.5764    6.7481   -0.6105 H       1  LIG1        0.1423
     44 H         -11.4875    5.0632   -0.6916 H       1  LIG1        0.1423
     45 C         -10.7040    8.8150    1.0392 C.ar    1  LIG1        0.0461
     46 C          -9.8677    8.4921   -0.0446 C.ar    1  LIG1        0.0066
     47 C          -9.7577    9.3896   -1.1020 C.ar    1  LIG1       -0.0301
     48 C         -10.4807   10.5831   -1.0790 C.ar    1  LIG1        0.0435
     49 C         -11.2945   10.8030    0.0362 C.ar    1  LIG1        0.0485
     50 N         -11.3968    9.9537    1.0508 N.ar    1  LIG1       -0.2577
     51 H          -9.1076    9.1554   -1.9380 H       1  LIG1        0.0643
     52 H         -11.8787   11.7152    0.1072 H       1  LIG1        0.0848
     53 C         -10.8347    7.9066    2.2443 C.3     1  LIG1       -0.0218
     54 H          -9.8490    7.6886    2.6590 H       1  LIG1        0.0293
     55 H         -11.3018    6.9616    1.9589 H       1  LIG1        0.0293
     56 H         -11.4454    8.4175    2.9854 H       1  LIG1        0.0293
     57 N         -10.3639   11.5391   -2.0899 N.pl3   1  LIG1       -0.3568
     58 H         -10.0870   11.1741   -2.9901 H       1  LIG1        0.1424
     59 H         -11.1465   12.1741   -2.1636 H       1  LIG1        0.1424
@<TRIPOS>BOND
     1    29    27    1
     2    58    57    1
     3    28    27    1
     4    27    19    1
     5    59    57    1
     6    57    48    1
     7    51    47    1
     8    22    18    1
     9    19    18   ar
    10    19    20   ar
    11    18    17   ar
    12    47    48   ar
    13    47    46   ar
    14    48    49   ar
    15    11     9    1
    16    44    42    1
    17    14    13    1
    18    40    38    1
    19    43    42    1
    20    15    13    1
    21    37    35    1
    22    42    36    1
    23    35    36   ar
    24    35    32   ar
    25    13     4    1
    26    36    33   ar
    27     7     3    1
    28     4     3   ar
    29     4     5   ar
    30    20    32    1
    31    20    21   ar
    32     3     2   ar
    33    32    30   ar
    34    17     5    1
    35    17    16   ar
    36    33    46    1
    37    33    31   ar
    38     5     6   ar
    39     2     8    1
    40     2     1   ar
    41    46    45   ar
    42    10     9    1
    43    39    38    1
    44     6     1   ar
    45    30    31   ar
    46    30    38    1
    47     1     9    1
    48    31    34    1
    49    49    52    1
    50    49    50   ar
    51     9    12    1
    52    38    41    1
    53    21    16   ar
    54    16    23    1
    55    45    50   ar
    56    45    53    1
    57    25    23    1
    58    55    53    1
    59    23    26    1
    60    23    24    1
    61    53    54    1
    62    53    56    1
