@<TRIPOS>MOLECULE
mol_data/opt/m06hf/geoms/mol2/6ih6ih-.out
 30 31 0 0 0
SMALL
GASTEIGER

@<TRIPOS>ATOM
      1 C          -4.3519   -2.0011    0.4709 C.ar    1  LIG1        0.0390
      2 C          -3.1039   -2.0698   -0.1481 C.ar    1  LIG1       -0.0389
      3 C          -2.5933   -0.9454   -0.7796 C.ar    1  LIG1       -0.0373
      4 C          -3.3319    0.2382   -0.7805 C.ar    1  LIG1        0.0510
      5 C          -4.5652    0.2239   -0.0994 C.ar    1  LIG1        0.0936
      6 N          -5.0532   -0.8678    0.4804 N.ar    1  LIG1       -0.2500
      7 H          -1.6308   -0.9786   -1.2766 H       1  LIG1        0.0637
      8 H          -2.5446   -2.9962   -0.1416 H       1  LIG1        0.0636
      9 C          -4.9816   -3.1912    1.1657 C.3     1  LIG1       -0.0223
     10 H          -4.3571   -4.0778    1.0630 H       1  LIG1        0.0292
     11 H          -5.9621   -3.3879    0.7325 H       1  LIG1        0.0292
     12 H          -5.1159   -2.9660    2.2239 H       1  LIG1        0.0292
     13 N          -2.8599    1.3931   -1.4008 N.pl3   1  LIG1       -0.3563
     14 H          -2.2176    1.2340   -2.1641 H       1  LIG1        0.1424
     15 H          -3.5797    2.0684   -1.6273 H       1  LIG1        0.1424
     16 C          -5.0062    2.6175    0.6125 C.ar    1  LIG1        0.0475
     17 C          -5.4206    1.4526   -0.0539 C.ar    1  LIG1        0.0249
     18 C          -6.6700    1.4244   -0.6629 C.ar    1  LIG1       -0.0286
     19 C          -7.4780    2.5604   -0.6340 C.ar    1  LIG1        0.0435
     20 C          -6.9644    3.6804    0.0297 C.ar    1  LIG1        0.0485
     21 N          -5.7832    3.7016    0.6323 N.ar    1  LIG1       -0.2577
     22 H          -7.0085    0.5130   -1.1425 H       1  LIG1        0.0643
     23 H          -7.5514    4.5920    0.0824 H       1  LIG1        0.0848
     24 C          -3.6995    2.6913    1.3780 C.3     1  LIG1       -0.0217
     25 H          -3.6768    3.6431    1.9039 H       1  LIG1        0.0293
     26 H          -2.8465    2.6186    0.7002 H       1  LIG1        0.0293
     27 H          -3.6406    1.8710    2.0955 H       1  LIG1        0.0293
     28 N          -8.7576    2.5746   -1.1905 N.pl3   1  LIG1       -0.3568
     29 H          -9.1091    3.4935   -1.4209 H       1  LIG1        0.1424
     30 H          -8.9028    1.9138   -1.9406 H       1  LIG1        0.1424
@<TRIPOS>BOND
     1    14    13    1
     2    30    28    1
     3    15    13    1
     4    29    28    1
     5    13     4    1
     6     7     3    1
     7    28    19    1
     8    22    18    1
     9     4     3   ar
    10     4     5   ar
    11     3     2   ar
    12    18    19   ar
    13    18    17   ar
    14    19    20   ar
    15     2     8    1
    16     2     1   ar
    17     5    17    1
    18     5     6   ar
    19    17    16   ar
    20    20    23    1
    21    20    21   ar
    22     1     6   ar
    23     1     9    1
    24    16    21   ar
    25    16    24    1
    26    26    24    1
    27    11     9    1
    28    10     9    1
    29     9    12    1
    30    24    25    1
    31    24    27    1
