@<TRIPOS>MOLECULE
mol_data/opt/m06hf/geoms/mol2/6ih6ih.out
 30 31 0 0 0
SMALL
GASTEIGER

@<TRIPOS>ATOM
      1 C          -4.3840   -2.0194    0.5342 C.ar    1  LIG1        0.0390
      2 C          -3.0998   -2.0683   -0.0085 C.ar    1  LIG1       -0.0389
      3 C          -2.5692   -0.9341   -0.6047 C.ar    1  LIG1       -0.0373
      4 C          -3.3222    0.2398   -0.6470 C.ar    1  LIG1        0.0510
      5 C          -4.6011    0.2012   -0.0568 C.ar    1  LIG1        0.0936
      6 N          -5.1009   -0.8978    0.4989 N.ar    1  LIG1       -0.2500
      7 H          -1.5767   -0.9516   -1.0397 H       1  LIG1        0.0637
      8 H          -2.5272   -2.9852    0.0309 H       1  LIG1        0.0636
      9 C          -5.0349   -3.2177    1.1938 C.3     1  LIG1       -0.0223
     10 H          -4.4104   -4.1047    1.0940 H       1  LIG1        0.0292
     11 H          -6.0039   -3.4031    0.7307 H       1  LIG1        0.0292
     12 H          -5.1968   -3.0096    2.2519 H       1  LIG1        0.0292
     13 N          -2.8167    1.4100   -1.2176 N.pl3   1  LIG1       -0.3563
     14 H          -2.1057    1.2530   -1.9189 H       1  LIG1        0.1424
     15 H          -3.5303    2.0560   -1.5317 H       1  LIG1        0.1424
     16 C          -6.7680    1.3931   -0.5687 C.ar    1  LIG1        0.0475
     17 C          -5.4663    1.4221   -0.0419 C.ar    1  LIG1        0.0249
     18 C          -4.9843    2.6035    0.5138 C.ar    1  LIG1       -0.0286
     19 C          -5.7987    3.7365    0.5447 C.ar    1  LIG1        0.0435
     20 C          -7.0761    3.6065   -0.0077 C.ar    1  LIG1        0.0485
     21 N          -7.5351    2.4822   -0.5431 N.ar    1  LIG1       -0.2577
     22 H          -3.9815    2.6343    0.9271 H       1  LIG1        0.0643
     23 H          -7.7522    4.4559   -0.0110 H       1  LIG1        0.0848
     24 C          -7.3678    0.1457   -1.1845 C.3     1  LIG1       -0.0217
     25 H          -7.5851   -0.5844   -0.4047 H       1  LIG1        0.0293
     26 H          -6.6701   -0.3144   -1.8865 H       1  LIG1        0.0293
     27 H          -8.2828    0.4325   -1.6979 H       1  LIG1        0.0293
     28 N          -5.3864    4.9269    1.1436 N.pl3   1  LIG1       -0.3568
     29 H          -4.3864    5.0607    1.1871 H       1  LIG1        0.1424
     30 H          -5.8721    5.7543    0.8279 H       1  LIG1        0.1424
@<TRIPOS>BOND
     1    14    13    1
     2    26    24    1
     3    27    24    1
     4    15    13    1
     5    13     4    1
     6    24    16    1
     7    24    25    1
     8     7     3    1
     9     4     3   ar
    10     4     5   ar
    11     3     2   ar
    12    16    21   ar
    13    16    17   ar
    14    21    20   ar
    15     5    17    1
    16     5     6   ar
    17    17    18   ar
    18    23    20    1
    19     2     8    1
    20     2     1   ar
    21    20    19   ar
    22     6     1   ar
    23    18    19   ar
    24    18    22    1
    25     1     9    1
    26    19    28    1
    27    11     9    1
    28    30    28    1
    29    10     9    1
    30    28    29    1
    31     9    12    1
