@<TRIPOS>MOLECULE
mol_data/opt/m06hf/geoms/mol2/6ih6ih6ih6ih.out
 58 61 0 0 0
SMALL
GASTEIGER

@<TRIPOS>ATOM
      1 C          -3.6144   -1.6210    1.2749 C.ar    1  LIG1        0.0390
      2 C          -2.8684   -2.1263    0.2098 C.ar    1  LIG1       -0.0389
      3 C          -2.9761   -1.5312   -1.0380 C.ar    1  LIG1       -0.0373
      4 C          -3.8197   -0.4329   -1.2106 C.ar    1  LIG1        0.0510
      5 C          -4.5147    0.0237   -0.0738 C.ar    1  LIG1        0.0936
      6 N          -4.4119   -0.5676    1.1126 N.ar    1  LIG1       -0.2500
      7 H          -2.4139   -1.9132   -1.8823 H       1  LIG1        0.0637
      8 H          -2.2201   -2.9797    0.3567 H       1  LIG1        0.0636
      9 C          -3.5614   -2.2208    2.6651 C.3     1  LIG1       -0.0223
     10 H          -2.9773   -3.1403    2.6720 H       1  LIG1        0.0292
     11 H          -4.5752   -2.4330    3.0039 H       1  LIG1        0.0292
     12 H          -3.1126   -1.5054    3.3549 H       1  LIG1        0.0292
     13 N          -3.9403    0.2044   -2.4483 N.pl3   1  LIG1       -0.3563
     14 H          -3.7075   -0.3834   -3.2374 H       1  LIG1        0.1424
     15 H          -4.8228    0.6839   -2.5785 H       1  LIG1        0.1424
     16 C          -6.7396    1.1604    0.3234 C.ar    1  LIG1        0.0482
     17 C          -5.4176    1.2138   -0.1523 C.ar    1  LIG1        0.0249
     18 C          -4.9475    2.4081   -0.6859 C.ar    1  LIG1       -0.0280
     19 C          -5.7721    3.5342   -0.7293 C.ar    1  LIG1        0.0516
     20 C          -7.0689    3.3925   -0.2071 C.ar    1  LIG1        0.0936
     21 N          -7.5172    2.2367    0.2807 N.ar    1  LIG1       -0.2493
     22 H          -3.9327    2.4634   -1.0666 H       1  LIG1        0.0644
     23 C          -7.3530   -0.0980    0.9024 C.3     1  LIG1       -0.0217
     24 H          -6.9609   -0.2761    1.9036 H       1  LIG1        0.0293
     25 H          -7.1089   -0.9665    0.2892 H       1  LIG1        0.0293
     26 H          -8.4308    0.0445    0.9433 H       1  LIG1        0.0293
     27 N          -5.3079    4.7507   -1.2351 N.pl3   1  LIG1       -0.3563
     28 H          -4.5241    4.6621   -1.8673 H       1  LIG1        0.1424
     29 H          -6.0355    5.3497   -1.6047 H       1  LIG1        0.1424
     30 C          -9.3288    4.4331   -0.6724 C.ar    1  LIG1        0.0482
     31 C          -8.0182    4.5474   -0.1743 C.ar    1  LIG1        0.0249
     32 C          -7.6172    5.7577    0.3794 C.ar    1  LIG1       -0.0280
     33 C          -8.5090    6.8301    0.4496 C.ar    1  LIG1        0.0516
     34 C          -9.8028    6.6151   -0.0525 C.ar    1  LIG1        0.0936
     35 N         -10.1707    5.4583   -0.6011 N.ar    1  LIG1       -0.2493
     36 H          -6.6072    5.8648    0.7612 H       1  LIG1        0.0644
     37 C          -9.8578    3.1636   -1.3079 C.3     1  LIG1       -0.0217
     38 H         -10.0447    2.4141   -0.5394 H       1  LIG1        0.0293
     39 H          -9.1323    2.7488   -2.0092 H       1  LIG1        0.0293
     40 H         -10.7830    3.4109   -1.8244 H       1  LIG1        0.0293
     41 N          -8.1350    8.0447    1.0286 N.pl3   1  LIG1       -0.3563
     42 H          -7.1385    8.2129    1.0305 H       1  LIG1        0.1424
     43 H          -8.6634    8.8416    0.6960 H       1  LIG1        0.1424
     44 C         -11.5499    8.0868   -1.1363 C.ar    1  LIG1        0.0475
     45 C         -10.8381    7.6931    0.0089 C.ar    1  LIG1        0.0249
     46 C         -11.1212    8.3045    1.2271 C.ar    1  LIG1       -0.0286
     47 C         -12.1065    9.2902    1.2949 C.ar    1  LIG1        0.0435
     48 C         -12.7575    9.6104    0.1003 C.ar    1  LIG1        0.0485
     49 N         -12.4844    9.0335   -1.0635 N.ar    1  LIG1       -0.2577
     50 H         -10.5810    8.0037    2.1189 H       1  LIG1        0.0643
     51 H         -13.5353   10.3674    0.0954 H       1  LIG1        0.0848
     52 C         -11.3056    7.4721   -2.4991 C.3     1  LIG1       -0.0217
     53 H         -11.7023    6.4574   -2.5253 H       1  LIG1        0.0293
     54 H         -10.2371    7.4170   -2.7140 H       1  LIG1        0.0293
     55 H         -11.8061    8.0924   -3.2392 H       1  LIG1        0.0293
     56 N         -12.4689    9.8914    2.5008 N.pl3   1  LIG1       -0.3568
     57 H         -11.7552    9.8752    3.2156 H       1  LIG1        0.1424
     58 H         -12.8968   10.8022    2.4103 H       1  LIG1        0.1424
@<TRIPOS>BOND
     1    55    52    1
     2    14    13    1
     3    54    52    1
     4    15    13    1
     5    53    52    1
     6    52    44    1
     7    13     4    1
     8    39    37    1
     9     7     3    1
    10    28    27    1
    11    40    37    1
    12    29    27    1
    13    37    30    1
    14    37    38    1
    15    27    19    1
    16     4     3   ar
    17     4     5   ar
    18    44    49   ar
    19    44    45   ar
    20    22    18    1
    21    49    48   ar
    22     3     2   ar
    23    19    18   ar
    24    19    20   ar
    25    18    17   ar
    26    30    35   ar
    27    30    31   ar
    28    35    34   ar
    29    20    31    1
    30    20    21   ar
    31    31    32   ar
    32    17     5    1
    33    17    16   ar
    34     5     6   ar
    35    34    45    1
    36    34    33   ar
    37    45    46   ar
    38    51    48    1
    39    48    47   ar
    40     2     8    1
    41     2     1   ar
    42    21    16   ar
    43    25    23    1
    44    16    23    1
    45    32    33   ar
    46    32    36    1
    47    33    41    1
    48    43    41    1
    49    23    26    1
    50    23    24    1
    51    41    42    1
    52     6     1   ar
    53    46    47   ar
    54    46    50    1
    55     1     9    1
    56    47    56    1
    57    58    56    1
    58    56    57    1
    59     9    10    1
    60     9    11    1
    61     9    12    1
