@<TRIPOS>MOLECULE
mol_data/opt/m06hf/geoms/mol2/6ih6ih6ih-6ih-.out
 58 61 0 0 0
SMALL
GASTEIGER

@<TRIPOS>ATOM
      1 C          -3.9687   -1.9015    0.9731 C.ar    1  LIG1        0.0390
      2 C          -2.9558   -2.1870    0.0577 C.ar    1  LIG1       -0.0389
      3 C          -2.7326   -1.3204   -1.0017 C.ar    1  LIG1       -0.0373
      4 C          -3.5173   -0.1742   -1.1341 C.ar    1  LIG1        0.0510
      5 C          -4.5007    0.0446   -0.1500 C.ar    1  LIG1        0.0936
      6 N          -4.7113   -0.8033    0.8517 N.ar    1  LIG1       -0.2500
      7 H          -1.9558   -1.5260   -1.7290 H       1  LIG1        0.0637
      8 H          -2.3557   -3.0800    0.1721 H       1  LIG1        0.0636
      9 C          -4.2909   -2.8087    2.1426 C.3     1  LIG1       -0.0223
     10 H          -3.5901   -3.6411    2.1965 H       1  LIG1        0.0292
     11 H          -5.3036   -3.1985    2.0322 H       1  LIG1        0.0292
     12 H          -4.2448   -2.2358    3.0685 H       1  LIG1        0.0292
     13 N          -3.3097    0.7341   -2.1757 N.pl3   1  LIG1       -0.3563
     14 H          -2.8657    0.3320   -2.9901 H       1  LIG1        0.1424
     15 H          -4.1296    1.2766   -2.4175 H       1  LIG1        0.1424
     16 C          -6.7679    1.1662   -0.1259 C.ar    1  LIG1        0.0482
     17 C          -5.3665    1.2649   -0.1877 C.ar    1  LIG1        0.0249
     18 C          -4.7847    2.5245   -0.2651 C.ar    1  LIG1       -0.0280
     19 C          -5.5866    3.6681   -0.2577 C.ar    1  LIG1        0.0516
     20 C          -6.9729    3.4710   -0.1529 C.ar    1  LIG1        0.0936
     21 N          -7.5251    2.2594   -0.1174 N.ar    1  LIG1       -0.2493
     22 H          -3.7055    2.6164   -0.3298 H       1  LIG1        0.0644
     23 C          -7.4897   -0.1641   -0.0658 C.3     1  LIG1       -0.0217
     24 H          -7.3568   -0.6139    0.9179 H       1  LIG1        0.0293
     25 H          -7.0865   -0.8572   -0.8062 H       1  LIG1        0.0293
     26 H          -8.5447    0.0194   -0.2563 H       1  LIG1        0.0293
     27 N          -5.0331    4.9438   -0.3170 N.pl3   1  LIG1       -0.3563
     28 H          -4.1129    4.9954   -0.7291 H       1  LIG1        0.1424
     29 H          -5.6613    5.6648   -0.6482 H       1  LIG1        0.1424
     30 C          -7.8954    5.5751    0.9182 C.ar    1  LIG1        0.0482
     31 C          -7.9050    4.6419   -0.1322 C.ar    1  LIG1        0.0249
     32 C          -8.8125    4.8069   -1.1696 C.ar    1  LIG1       -0.0280
     33 C          -9.6791    5.9005   -1.1758 C.ar    1  LIG1        0.0516
     34 C          -9.5830    6.7940   -0.0943 C.ar    1  LIG1        0.0936
     35 N          -8.7203    6.6192    0.9035 N.ar    1  LIG1       -0.2493
     36 H          -8.8448    4.0758   -1.9697 H       1  LIG1        0.0644
     37 C          -6.9954    5.4236    2.1282 C.3     1  LIG1       -0.0217
     38 H          -7.3077    6.1554    2.8699 H       1  LIG1        0.0293
     39 H          -5.9512    5.5887    1.8560 H       1  LIG1        0.0293
     40 H          -7.0882    4.4168    2.5387 H       1  LIG1        0.0293
     41 N         -10.6187    6.0793   -2.1924 N.pl3   1  LIG1       -0.3563
     42 H         -10.9029    7.0409   -2.3310 H       1  LIG1        0.1424
     43 H         -10.3899    5.6129   -3.0590 H       1  LIG1        0.1424
     44 C          -9.9291    9.2860    0.1174 C.ar    1  LIG1        0.0475
     45 C         -10.4700    7.9971   -0.0192 C.ar    1  LIG1        0.0249
     46 C         -11.8520    7.8428   -0.0737 C.ar    1  LIG1       -0.0286
     47 C         -12.6769    8.9653    0.0152 C.ar    1  LIG1        0.0435
     48 C         -12.0416   10.2035    0.1477 C.ar    1  LIG1        0.0485
     49 N         -10.7234   10.3526    0.1928 N.ar    1  LIG1       -0.2577
     50 H         -12.2798    6.8510   -0.1743 H       1  LIG1        0.0643
     51 H         -12.6347   11.1097    0.2235 H       1  LIG1        0.0848
     52 C          -8.4363    9.5359    0.1857 C.3     1  LIG1       -0.0217
     53 H          -8.2754   10.6103    0.1288 H       1  LIG1        0.0293
     54 H          -7.9233    9.0367   -0.6387 H       1  LIG1        0.0293
     55 H          -8.0354    9.1404    1.1185 H       1  LIG1        0.0293
     56 N         -14.0679    8.8611    0.0297 N.pl3   1  LIG1       -0.3568
     57 H         -14.5603    9.6957   -0.2560 H       1  LIG1        0.1424
     58 H         -14.4390    8.0299   -0.4083 H       1  LIG1        0.1424
@<TRIPOS>BOND
     1    43    41    1
     2    14    13    1
     3    15    13    1
     4    42    41    1
     5    41    33    1
     6    13     4    1
     7    36    32    1
     8     7     3    1
     9    33    32   ar
    10    33    34   ar
    11    32    31   ar
    12     4     3   ar
    13     4     5   ar
    14     3     2   ar
    15    25    23    1
    16    28    27    1
    17    29    27    1
    18    54    52    1
    19    58    56    1
    20    22    18    1
    21    27    19    1
    22    18    19   ar
    23    18    17   ar
    24    19    20   ar
    25    26    23    1
    26    57    56    1
    27    17     5    1
    28    17    16   ar
    29    50    46    1
    30    20    31    1
    31    20    21   ar
    32     5     6   ar
    33    31    30   ar
    34    16    21   ar
    35    16    23    1
    36    34    45    1
    37    34    35   ar
    38    46    45   ar
    39    46    47   ar
    40    23    24    1
    41    45    44   ar
    42    47    56    1
    43    47    48   ar
    44     2     8    1
    45     2     1   ar
    46    44    52    1
    47    44    49   ar
    48    53    52    1
    49    48    49   ar
    50    48    51    1
    51    52    55    1
    52     6     1   ar
    53    35    30   ar
    54    30    37    1
    55     1     9    1
    56    39    37    1
    57    11     9    1
    58    37    40    1
    59    37    38    1
    60     9    10    1
    61     9    12    1
