@<TRIPOS>MOLECULE
mol_data/opt/m06hf/geoms/mol2/6ih6ih6ih.out
 44 46 0 0 0
SMALL
GASTEIGER

@<TRIPOS>ATOM
      1 C          -4.0423   -1.8906    0.9428 C.ar    1  LIG1        0.0390
      2 C          -3.0086   -2.1220    0.0348 C.ar    1  LIG1       -0.0389
      3 C          -2.7761   -1.2044   -0.9782 C.ar    1  LIG1       -0.0373
      4 C          -3.5699   -0.0605   -1.0712 C.ar    1  LIG1        0.0510
      5 C          -4.5734    0.1026   -0.0961 C.ar    1  LIG1        0.0936
      6 N          -4.7934   -0.7944    0.8596 N.ar    1  LIG1       -0.2500
      7 H          -1.9849   -1.3686   -1.7005 H       1  LIG1        0.0637
      8 H          -2.4013   -3.0135    0.1178 H       1  LIG1        0.0636
      9 C          -4.3706   -2.8519    2.0668 C.3     1  LIG1       -0.0223
     10 H          -3.7404   -3.7392    2.0177 H       1  LIG1        0.0292
     11 H          -5.4174   -3.1476    1.9953 H       1  LIG1        0.0292
     12 H          -4.2207   -2.3562    3.0261 H       1  LIG1        0.0292
     13 N          -3.3529    0.8958   -2.0664 N.pl3   1  LIG1       -0.3563
     14 H          -2.8863    0.5374   -2.8885 H       1  LIG1        0.1424
     15 H          -4.1726    1.4425   -2.2993 H       1  LIG1        0.1424
     16 C          -6.8508    1.2049   -0.0730 C.ar    1  LIG1        0.0482
     17 C          -5.4497    1.3156   -0.0982 C.ar    1  LIG1        0.0249
     18 C          -4.8788    2.5827   -0.1124 C.ar    1  LIG1       -0.0280
     19 C          -5.6887    3.7202   -0.0911 C.ar    1  LIG1        0.0516
     20 C          -7.0775    3.5107   -0.0527 C.ar    1  LIG1        0.0936
     21 N          -7.6146    2.2922   -0.0554 N.ar    1  LIG1       -0.2493
     22 H          -3.7990    2.6852   -0.1383 H       1  LIG1        0.0644
     23 C          -7.5651   -0.1311   -0.0681 C.3     1  LIG1       -0.0217
     24 H          -7.4132   -0.6296    0.8888 H       1  LIG1        0.0293
     25 H          -7.1727   -0.7827   -0.8508 H       1  LIG1        0.0293
     26 H          -8.6239    0.0573   -0.2327 H       1  LIG1        0.0293
     27 N          -5.1365    5.0026   -0.0728 N.pl3   1  LIG1       -0.3563
     28 H          -4.1998    5.0571   -0.4481 H       1  LIG1        0.1424
     29 H          -5.7461    5.7203   -0.4446 H       1  LIG1        0.1424
     30 C          -9.0623    4.7858   -0.9580 C.ar    1  LIG1        0.0475
     31 C          -8.0247    4.6683   -0.0174 C.ar    1  LIG1        0.0249
     32 C          -7.8891    5.6411    0.9685 C.ar    1  LIG1       -0.0286
     33 C          -8.7847    6.7109    1.0136 C.ar    1  LIG1        0.0435
     34 C          -9.7800    6.7386    0.0326 C.ar    1  LIG1        0.0485
     35 N          -9.9069    5.8148   -0.9120 N.ar    1  LIG1       -0.2577
     36 H          -7.0952    5.5561    1.7031 H       1  LIG1        0.0643
     37 H         -10.5043    7.5469    0.0202 H       1  LIG1        0.0848
     38 C          -9.2808    3.7717   -2.0620 C.3     1  LIG1       -0.0217
     39 H          -9.6475    2.8359   -1.6409 H       1  LIG1        0.0293
     40 H          -8.3459    3.5594   -2.5837 H       1  LIG1        0.0293
     41 H         -10.0105    4.1862   -2.7543 H       1  LIG1        0.0293
     42 N          -8.7301    7.6784    2.0174 N.pl3   1  LIG1       -0.3568
     43 H          -7.8232    7.7986    2.4453 H       1  LIG1        0.1424
     44 H          -9.1606    8.5612    1.7805 H       1  LIG1        0.1424
@<TRIPOS>BOND
     1    14    13    1
     2    41    38    1
     3    40    38    1
     4    15    13    1
     5    13     4    1
     6    38    39    1
     7    38    30    1
     8     7     3    1
     9     4     3   ar
    10     4     5   ar
    11     3     2   ar
    12    30    35   ar
    13    30    31   ar
    14    35    34   ar
    15    25    23    1
    16    28    27    1
    17    29    27    1
    18    26    23    1
    19    22    18    1
    20    18    17   ar
    21    18    19   ar
    22    17     5    1
    23    17    16   ar
    24     5     6   ar
    25    19    27    1
    26    19    20   ar
    27    16    23    1
    28    16    21   ar
    29    23    24    1
    30    21    20   ar
    31    20    31    1
    32    31    32   ar
    33    37    34    1
    34    34    33   ar
    35     2     8    1
    36     2     1   ar
    37     6     1   ar
    38     1     9    1
    39    32    33   ar
    40    32    36    1
    41    33    42    1
    42    44    42    1
    43    11     9    1
    44    42    43    1
    45    10     9    1
    46     9    12    1
