@<TRIPOS>MOLECULE
mol_data/opt/m06hf/geoms/mol2/6ih6ih-6ih-6ih-.out
 58 61 0 0 0
SMALL
GASTEIGER

@<TRIPOS>ATOM
      1 C          -4.5000   -2.2540    0.0744 C.ar    1  LIG1        0.0390
      2 C          -3.1065   -2.2958    0.0152 C.ar    1  LIG1       -0.0389
      3 C          -2.3915   -1.1119   -0.0791 C.ar    1  LIG1       -0.0373
      4 C          -3.0753    0.1046   -0.1038 C.ar    1  LIG1        0.0510
      5 C          -4.4788    0.0516   -0.0016 C.ar    1  LIG1        0.0936
      6 N          -5.1531   -1.0926    0.0612 N.ar    1  LIG1       -0.2500
      7 H          -1.3098   -1.1217   -0.1420 H       1  LIG1        0.0637
      8 H          -2.5909   -3.2469    0.0331 H       1  LIG1        0.0636
      9 C          -5.3461   -3.5071    0.1665 C.3     1  LIG1       -0.0223
     10 H          -4.7359   -4.3995    0.0313 H       1  LIG1        0.0292
     11 H          -6.1202   -3.4777   -0.5998 H       1  LIG1        0.0292
     12 H          -5.8324   -3.5504    1.1416 H       1  LIG1        0.0292
     13 N          -2.3995    1.3184   -0.1984 N.pl3   1  LIG1       -0.3563
     14 H          -1.4841    1.2666   -0.6215 H       1  LIG1        0.1424
     15 H          -2.9559    2.0857   -0.5538 H       1  LIG1        0.1424
     16 C          -5.1864    2.2875    0.9756 C.ar    1  LIG1        0.0482
     17 C          -5.2881    1.3112   -0.0300 C.ar    1  LIG1        0.0249
     18 C          -6.1773    1.5138   -1.0769 C.ar    1  LIG1       -0.0280
     19 C          -6.9344    2.6843   -1.1372 C.ar    1  LIG1        0.0516
     20 C          -6.7463    3.6160   -0.1008 C.ar    1  LIG1        0.0936
     21 N          -5.9029    3.4072    0.9069 N.ar    1  LIG1       -0.2493
     22 H          -6.2797    0.7520   -1.8416 H       1  LIG1        0.0644
     23 C          -4.3104    2.1037    2.1989 C.3     1  LIG1       -0.0217
     24 H          -4.5250    2.9181    2.8872 H       1  LIG1        0.0293
     25 H          -3.2539    2.1137    1.9246 H       1  LIG1        0.0293
     26 H          -4.5334    1.1478    2.6760 H       1  LIG1        0.0293
     27 N          -7.8564    2.9048   -2.1601 N.pl3   1  LIG1       -0.3563
     28 H          -8.0414    3.8810   -2.3531 H       1  LIG1        0.1424
     29 H          -7.6893    2.3661   -2.9983 H       1  LIG1        0.1424
     30 C          -6.8374    6.1401   -0.0492 C.ar    1  LIG1        0.0482
     31 C          -7.5057    4.9050   -0.0923 C.ar    1  LIG1        0.0249
     32 C          -8.8944    4.8955   -0.1305 C.ar    1  LIG1       -0.0280
     33 C          -9.6055    6.0975   -0.1090 C.ar    1  LIG1        0.0516
     34 C          -8.8514    7.2821   -0.0541 C.ar    1  LIG1        0.0936
     35 N          -7.5195    7.2803   -0.0378 N.ar    1  LIG1       -0.2493
     36 H          -9.4240    3.9495   -0.1758 H       1  LIG1        0.0644
     37 C          -5.3265    6.2438   -0.0187 C.3     1  LIG1       -0.0217
     38 H          -5.0575    7.2821   -0.2009 H       1  LIG1        0.0293
     39 H          -4.8808    5.6007   -0.7799 H       1  LIG1        0.0293
     40 H          -4.9507    5.9229    0.9527 H       1  LIG1        0.0293
     41 N         -11.0009    6.1135   -0.1070 N.pl3   1  LIG1       -0.3563
     42 H         -11.4089    6.9575   -0.4888 H       1  LIG1        0.1424
     43 H         -11.4283    5.2735   -0.4714 H       1  LIG1        0.1424
     44 C          -9.2076    9.6135   -0.9595 C.ar    1  LIG1        0.0475
     45 C          -9.5272    8.6164   -0.0235 C.ar    1  LIG1        0.0249
     46 C         -10.4812    8.8843    0.9543 C.ar    1  LIG1       -0.0286
     47 C         -11.0987   10.1350    0.9946 C.ar    1  LIG1        0.0435
     48 C         -10.7130   11.0579    0.0180 C.ar    1  LIG1        0.0485
     49 N          -9.8079   10.8021   -0.9185 N.ar    1  LIG1       -0.2577
     50 H         -10.7312    8.1220    1.6848 H       1  LIG1        0.0643
     51 H         -11.1595   12.0471    0.0030 H       1  LIG1        0.0848
     52 C          -8.1806    9.4045   -2.0534 C.3     1  LIG1       -0.0217
     53 H          -8.2808   10.2210   -2.7649 H       1  LIG1        0.0293
     54 H          -8.3365    8.4475   -2.5542 H       1  LIG1        0.0293
     55 H          -7.1778    9.3973   -1.6267 H       1  LIG1        0.0293
     56 N         -12.0162   10.4746    1.9894 N.pl3   1  LIG1       -0.3568
     57 H         -12.6511   11.2214    1.7451 H       1  LIG1        0.1424
     58 H         -12.4930    9.6922    2.4143 H       1  LIG1        0.1424
@<TRIPOS>BOND
     1    29    27    1
     2    53    52    1
     3    54    52    1
     4    28    27    1
     5    27    19    1
     6    52    55    1
     7    52    44    1
     8    22    18    1
     9    19    18   ar
    10    19    20   ar
    11    18    17   ar
    12    44    49   ar
    13    44    45   ar
    14    49    48   ar
    15    39    37    1
    16    14    13    1
    17    11     9    1
    18    15    13    1
    19    42    41    1
    20    43    41    1
    21    38    37    1
    22    13     4    1
    23    36    32    1
    24     7     3    1
    25    32    33   ar
    26    32    31   ar
    27    33    41    1
    28    33    34   ar
    29     4     3   ar
    30     4     5   ar
    31    20    31    1
    32    20    21   ar
    33    31    30   ar
    34     3     2   ar
    35    34    35   ar
    36    34    45    1
    37    30    35   ar
    38    30    37    1
    39    17     5    1
    40    17    16   ar
    41    45    46   ar
    42    37    40    1
    43     5     6   ar
    44    51    48    1
    45     2     8    1
    46     2     1   ar
    47    48    47   ar
    48    10     9    1
    49     6     1   ar
    50     1     9    1
    51     9    12    1
    52    21    16   ar
    53    46    47   ar
    54    46    50    1
    55    16    23    1
    56    47    56    1
    57    57    56    1
    58    25    23    1
    59    56    58    1
    60    23    26    1
    61    23    24    1
