@<TRIPOS>MOLECULE
mol_data/opt/m06hf/geoms/mol2/6ih6ih-6ih.out
 44 46 0 0 0
SMALL
GASTEIGER

@<TRIPOS>ATOM
      1 C          -4.4011   -2.1121    0.3349 C.ar    1  LIG1        0.0390
      2 C          -3.0682   -2.1556   -0.0755 C.ar    1  LIG1       -0.0389
      3 C          -2.4558   -0.9977   -0.5305 C.ar    1  LIG1       -0.0373
      4 C          -3.1791    0.1952   -0.5619 C.ar    1  LIG1        0.0510
      5 C          -4.5063    0.1517   -0.0942 C.ar    1  LIG1        0.0936
      6 N          -5.0891   -0.9711    0.3145 N.ar    1  LIG1       -0.2500
      7 H          -1.4259   -1.0112   -0.8671 H       1  LIG1        0.0637
      8 H          -2.5218   -3.0890   -0.0468 H       1  LIG1        0.0636
      9 C          -5.1353   -3.3390    0.8354 C.3     1  LIG1       -0.0223
     10 H          -4.5498   -4.2409    0.6609 H       1  LIG1        0.0292
     11 H          -6.0926   -3.4217    0.3218 H       1  LIG1        0.0292
     12 H          -5.3294   -3.2402    1.9041 H       1  LIG1        0.0292
     13 N          -2.6080    1.3848   -1.0092 N.pl3   1  LIG1       -0.3563
     14 H          -1.8378    1.2725   -1.6527 H       1  LIG1        0.1424
     15 H          -3.2769    2.0818   -1.3118 H       1  LIG1        0.1424
     16 C          -5.0481    2.4931    0.7186 C.ar    1  LIG1        0.0482
     17 C          -5.3501    1.3889   -0.0954 C.ar    1  LIG1        0.0249
     18 C          -6.4723    1.4402   -0.9114 C.ar    1  LIG1       -0.0280
     19 C          -7.2704    2.5845   -0.9311 C.ar    1  LIG1        0.0516
     20 C          -6.8912    3.6396   -0.0819 C.ar    1  LIG1        0.0936
     21 N          -5.8141    3.5828    0.6968 N.ar    1  LIG1       -0.2493
     22 H          -6.7229    0.5837   -1.5270 H       1  LIG1        0.0644
     23 C          -3.8839    2.4890    1.6893 C.3     1  LIG1       -0.0217
     24 H          -3.9533    3.3889    2.2959 H       1  LIG1        0.0293
     25 H          -2.9322    2.4696    1.1547 H       1  LIG1        0.0293
     26 H          -3.9371    1.6069    2.3299 H       1  LIG1        0.0293
     27 N          -8.4055    2.6694   -1.7319 N.pl3   1  LIG1       -0.3563
     28 H          -8.7077    3.6131   -1.9379 H       1  LIG1        0.1424
     29 H          -8.4097    2.0634   -2.5394 H       1  LIG1        0.1424
     30 C          -9.0023    4.9539    0.4114 C.ar    1  LIG1        0.0475
     31 C          -7.6785    4.9135   -0.0564 C.ar    1  LIG1        0.0249
     32 C          -7.0719    6.0880   -0.4872 C.ar    1  LIG1       -0.0286
     33 C          -7.7947    7.2804   -0.4817 C.ar    1  LIG1        0.0435
     34 C          -9.1155    7.2124   -0.0255 C.ar    1  LIG1        0.0485
     35 N          -9.6885    6.0979    0.4087 N.ar    1  LIG1       -0.2577
     36 H          -6.0379    6.0670   -0.8116 H       1  LIG1        0.0643
     37 H          -9.7240    8.1113   -0.0001 H       1  LIG1        0.0848
     38 C          -9.6950    3.7336    0.9849 C.3     1  LIG1       -0.0217
     39 H          -9.0896    3.3026    1.7842 H       1  LIG1        0.0293
     40 H          -9.8435    2.9728    0.2161 H       1  LIG1        0.0293
     41 H         -10.6554    4.0540    1.3824 H       1  LIG1        0.0293
     42 N          -7.2250    8.4961   -0.8621 N.pl3   1  LIG1       -0.3568
     43 H          -6.4370    8.4211   -1.4892 H       1  LIG1        0.1424
     44 H          -7.8851    9.2000   -1.1611 H       1  LIG1        0.1424
@<TRIPOS>BOND
     1    29    27    1
     2    28    27    1
     3    27    19    1
     4    14    13    1
     5    22    18    1
     6    43    42    1
     7    15    13    1
     8    44    42    1
     9    13     4    1
    10    19    18   ar
    11    19    20   ar
    12    18    17   ar
    13     7     3    1
    14    42    33    1
    15    36    32    1
    16     4     3   ar
    17     4     5   ar
    18     3     2   ar
    19    32    33   ar
    20    32    31   ar
    21    33    34   ar
    22    17     5    1
    23    17    16   ar
    24     5     6   ar
    25    20    31    1
    26    20    21   ar
    27     2     8    1
    28     2     1   ar
    29    31    30   ar
    30    34    37    1
    31    34    35   ar
    32    40    38    1
    33     6     1   ar
    34    11     9    1
    35     1     9    1
    36    35    30   ar
    37    30    38    1
    38    10     9    1
    39    21    16   ar
    40    16    23    1
    41     9    12    1
    42    38    41    1
    43    38    39    1
    44    25    23    1
    45    23    24    1
    46    23    26    1
