@<TRIPOS>MOLECULE
mol_data/opt/m06hf/geoms/mol2/6ih6ih-6ih6ih-.out
 58 61 0 0 0
SMALL
GASTEIGER

@<TRIPOS>ATOM
      1 C          -4.3236   -2.1504    0.4841 C.ar    1  LIG1        0.0390
      2 C          -3.0315   -2.2405   -0.0340 C.ar    1  LIG1       -0.0389
      3 C          -2.4534   -1.1258   -0.6219 C.ar    1  LIG1       -0.0373
      4 C          -3.1688    0.0710   -0.6792 C.ar    1  LIG1        0.0510
      5 C          -4.4512    0.0787   -0.0975 C.ar    1  LIG1        0.0936
      6 N          -5.0031   -1.0052    0.4394 N.ar    1  LIG1       -0.2500
      7 H          -1.4562   -1.1765   -1.0435 H       1  LIG1        0.0637
      8 H          -2.4906   -3.1764    0.0161 H       1  LIG1        0.0636
      9 C          -5.0213   -3.3278    1.1337 C.3     1  LIG1       -0.0223
     10 H          -4.4586   -4.2478    0.9798 H       1  LIG1        0.0292
     11 H          -6.0184   -3.4361    0.7086 H       1  LIG1        0.0292
     12 H          -5.1249   -3.1469    2.2043 H       1  LIG1        0.0292
     13 N          -2.6288    1.2152   -1.2630 N.pl3   1  LIG1       -0.3563
     14 H          -1.9209    1.0416   -1.9624 H       1  LIG1        0.1424
     15 H          -3.3155    1.8975   -1.5594 H       1  LIG1        0.1424
     16 C          -4.9092    2.4870    0.5646 C.ar    1  LIG1        0.0482
     17 C          -5.2899    1.3194   -0.1177 C.ar    1  LIG1        0.0249
     18 C          -6.4936    1.3047   -0.8108 C.ar    1  LIG1       -0.0280
     19 C          -7.2941    2.4464   -0.8426 C.ar    1  LIG1        0.0516
     20 C          -6.8258    3.5712   -0.1410 C.ar    1  LIG1        0.0936
     21 N          -5.6747    3.5770    0.5251 N.ar    1  LIG1       -0.2493
     22 H          -6.8056    0.3978   -1.3160 H       1  LIG1        0.0644
     23 C          -3.6589    2.5566    1.4191 C.3     1  LIG1       -0.0217
     24 H          -3.6610    3.5157    1.9320 H       1  LIG1        0.0293
     25 H          -2.7605    2.4597    0.8065 H       1  LIG1        0.0293
     26 H          -3.6656    1.7470    2.1511 H       1  LIG1        0.0293
     27 N          -8.5178    2.4667   -1.5062 N.pl3   1  LIG1       -0.3563
     28 H          -8.8425    3.3904   -1.7631 H       1  LIG1        0.1424
     29 H          -8.6155    1.7893   -2.2488 H       1  LIG1        0.1424
     30 C          -8.8449    4.9444    0.5314 C.ar    1  LIG1        0.0482
     31 C          -7.6156    4.8442   -0.1410 C.ar    1  LIG1        0.0249
     32 C          -7.1196    5.9555   -0.8079 C.ar    1  LIG1       -0.0280
     33 C          -7.8447    7.1483   -0.8136 C.ar    1  LIG1        0.0516
     34 C          -9.0517    7.1628   -0.0921 C.ar    1  LIG1        0.0936
     35 N          -9.5264    6.0878    0.5346 N.ar    1  LIG1       -0.2493
     36 H          -6.1657    5.8917   -1.3192 H       1  LIG1        0.0644
     37 C          -9.4281    3.7841    1.3123 C.3     1  LIG1       -0.0217
     38 H          -8.7051    3.4308    2.0495 H       1  LIG1        0.0293
     39 H          -9.6730    2.9553    0.6445 H       1  LIG1        0.0293
     40 H         -10.3256    4.1364    1.8157 H       1  LIG1        0.0293
     41 N          -7.3784    8.2781   -1.4810 N.pl3   1  LIG1       -0.3563
     42 H          -6.7516    8.0912   -2.2504 H       1  LIG1        0.1424
     43 H          -8.0944    8.9571   -1.7084 H       1  LIG1        0.1424
     44 C          -9.4367    9.5870    0.5508 C.ar    1  LIG1        0.0475
     45 C          -9.8955    8.3985   -0.0412 C.ar    1  LIG1        0.0249
     46 C         -11.1810    8.3538   -0.5701 C.ar    1  LIG1       -0.0286
     47 C         -11.9801    9.4954   -0.5418 C.ar    1  LIG1        0.0435
     48 C         -11.4188   10.6410    0.0342 C.ar    1  LIG1        0.0485
     49 N         -10.2044   10.6785    0.5642 N.ar    1  LIG1       -0.2577
     50 H         -11.5531    7.4244   -0.9864 H       1  LIG1        0.0643
     51 H         -11.9961   11.5594    0.0797 H       1  LIG1        0.0848
     52 C          -8.0937    9.6824    1.2479 C.3     1  LIG1       -0.0217
     53 H          -8.0566   10.6391    1.7641 H       1  LIG1        0.0293
     54 H          -7.2738    9.6133    0.5304 H       1  LIG1        0.0293
     55 H          -7.9886    8.8690    1.9678 H       1  LIG1        0.0293
     56 N         -13.2934    9.4959   -1.0132 N.pl3   1  LIG1       -0.3568
     57 H         -13.6480   10.4024   -1.2840 H       1  LIG1        0.1424
     58 H         -13.5012    8.7843   -1.6991 H       1  LIG1        0.1424
@<TRIPOS>BOND
     1    42    41    1
     2    29    27    1
     3    14    13    1
     4    28    27    1
     5    43    41    1
     6    58    56    1
     7    15    13    1
     8    27    19    1
     9    41    33    1
    10    36    32    1
    11    22    18    1
    12    57    56    1
    13    13     4    1
    14     7     3    1
    15    56    47    1
    16    50    46    1
    17    19    18   ar
    18    19    20   ar
    19    33    32   ar
    20    33    34   ar
    21    18    17   ar
    22    32    31   ar
    23     4     3   ar
    24     4     5   ar
    25     3     2   ar
    26    46    47   ar
    27    46    45   ar
    28    47    48   ar
    29    20    31    1
    30    20    21   ar
    31    31    30   ar
    32    17     5    1
    33    17    16   ar
    34     5     6   ar
    35    34    45    1
    36    34    35   ar
    37    45    44   ar
    38     2     8    1
    39     2     1   ar
    40    48    51    1
    41    48    49   ar
    42     6     1   ar
    43     1     9    1
    44    21    16   ar
    45    54    52    1
    46    30    35   ar
    47    30    37    1
    48    44    49   ar
    49    44    52    1
    50    16    23    1
    51    39    37    1
    52    11     9    1
    53    25    23    1
    54    10     9    1
    55     9    12    1
    56    52    53    1
    57    52    55    1
    58    37    40    1
    59    37    38    1
    60    23    24    1
    61    23    26    1
