@<TRIPOS>MOLECULE
mol_data/opt/m06hf/geoms/mol2/6ii.out
 17 17 0 0 0
SMALL
GASTEIGER

@<TRIPOS>ATOM
      1 C          -4.5668   -2.0448    0.0026 C.ar    1  LIG1        0.0382
      2 C          -3.1708   -2.0252    0.0014 C.ar    1  LIG1       -0.0404
      3 C          -2.5124   -0.8021   -0.0012 C.ar    1  LIG1       -0.0557
      4 C          -3.2517    0.3787   -0.0026 C.ar    1  LIG1       -0.0323
      5 C          -4.6405    0.2451   -0.0013 C.ar    1  LIG1        0.0308
      6 N          -5.2823   -0.9195    0.0013 N.ar    1  LIG1       -0.2599
      7 H          -1.4290   -0.7640   -0.0021 H       1  LIG1        0.0621
      8 H          -2.6167   -2.9540    0.0026 H       1  LIG1        0.0635
      9 H          -5.2659    1.1317   -0.0023 H       1  LIG1        0.0832
     10 C          -5.3529   -3.3396    0.0055 C.3     1  LIG1       -0.0224
     11 H          -4.6895   -4.2033    0.0064 H       1  LIG1        0.0292
     12 H          -5.9919   -3.3746   -0.8769 H       1  LIG1        0.0292
     13 H          -5.9904   -3.3716    0.8891 H       1  LIG1        0.0292
     14 C          -2.5870    1.7406   -0.0055 C.3     1  LIG1       -0.0383
     15 H          -3.3366    2.5315   -0.0061 H       1  LIG1        0.0278
     16 H          -1.9606    1.8569   -0.8909 H       1  LIG1        0.0278
     17 H          -1.9589    1.8598    0.8783 H       1  LIG1        0.0278
@<TRIPOS>BOND
     1    16    14    1
     2    12    10    1
     3    15    14    1
     4    14     4    1
     5    14    17    1
     6     4     5   ar
     7     4     3   ar
     8     9     5    1
     9     7     3    1
    10     5     6   ar
    11     3     2   ar
    12     6     1   ar
    13     2     8    1
    14     2     1   ar
    15     1    10    1
    16    10    11    1
    17    10    13    1
