@<TRIPOS>MOLECULE
mol_data/opt/m06hf/geoms/mol2/6ii13fd6fd-6hf-4af4he-12hf-6fi-.out
 98 105 0 0 0
SMALL
GASTEIGER

@<TRIPOS>ATOM
      1 C          -3.8292   -0.6104   -2.1175 C.ar    1  LIG1        0.0390
      2 C          -2.4760   -0.8748   -1.9087 C.ar    1  LIG1       -0.0404
      3 C          -1.8083   -0.1731   -0.9150 C.ar    1  LIG1       -0.0551
      4 C          -2.4607    0.7941   -0.1516 C.ar    1  LIG1       -0.0229
      5 C          -3.8049    1.0214   -0.4769 C.ar    1  LIG1        0.0939
      6 N          -4.4607    0.3219   -1.4097 N.ar    1  LIG1       -0.2500
      7 H          -0.7663   -0.3883   -0.7086 H       1  LIG1        0.0621
      8 H          -1.9706   -1.6278   -2.4971 H       1  LIG1        0.0635
      9 C          -4.6512   -1.3484   -3.1533 C.3     1  LIG1       -0.0223
     10 H          -4.0774   -2.1583   -3.6003 H       1  LIG1        0.0292
     11 H          -4.9601   -0.6528   -3.9343 H       1  LIG1        0.0292
     12 H          -5.5462   -1.7547   -2.6822 H       1  LIG1        0.0292
     13 C          -1.7422    1.4928    0.9834 C.3     1  LIG1       -0.0376
     14 H          -2.3866    1.5520    1.8612 H       1  LIG1        0.0278
     15 H          -1.4665    2.5085    0.7049 H       1  LIG1        0.0278
     16 H          -0.8442    0.9308    1.2383 H       1  LIG1        0.0278
     17 C          -4.6838    2.0051    0.1995 C.ar    1  LIG1        0.1089
     18 C          -4.5395    3.1790    0.9143 C.ar    1  LIG1        0.1616
     19 C          -5.8469    3.6501    1.2284 C.ar    1  LIG1        0.1191
     20 C          -6.7607    2.7599    0.6809 C.ar    1  LIG1        0.0734
     21 N          -6.0380    1.7984    0.0691 N.ar    1  LIG1       -0.3488
     22 H          -6.3788    0.9712   -0.4108 H       1  LIG1        0.1661
     23 O          -3.3876    3.8185    1.2174 O.3     1  LIG1       -0.5034
     24 H          -3.5815    4.6478    1.6723 H       1  LIG1        0.2923
     25 N          -6.2594    5.8505    2.5054 N.1     1  LIG1       -0.1907
     26 C          -6.1160    4.8658    1.9301 C.1     1  LIG1        0.1050
     27 C          -8.9769    2.5032   -0.4678 C.ar    1  LIG1        0.2223
     28 C          -8.2314    2.7790    0.6980 C.ar    1  LIG1        0.0623
     29 C          -8.9492    3.0500    1.8505 C.ar    1  LIG1       -0.0280
     30 C         -10.3447    3.0368    1.8201 C.ar    1  LIG1        0.0786
     31 C         -11.0011    2.7619    0.6077 C.ar    1  LIG1        0.0955
     32 N         -10.2924    2.4945   -0.4929 N.ar    1  LIG1       -0.2111
     33 H          -8.4330    3.2453    2.7820 H       1  LIG1        0.0639
     34 O          -8.3829    2.2148   -1.6372 O.3     1  LIG1       -0.4919
     35 H          -7.4504    2.4707   -1.6314 H       1  LIG1        0.2937
     36 N         -11.5615    3.3714    4.0833 N.1     1  LIG1       -0.1908
     37 C         -11.0496    3.2268    3.0666 C.1     1  LIG1        0.1013
     38 C         -13.1470    1.8229   -0.3654 C.ar    1  LIG1        0.1264
     39 C         -12.4790    2.7563    0.4735 C.ar    1  LIG1        0.0447
     40 C         -13.2599    3.6686    1.1720 C.ar    1  LIG1       -0.0055
     41 C         -14.6433    3.6471    1.0566 C.ar    1  LIG1        0.1435
     42 C         -15.2152    2.6885    0.2179 C.ar    1  LIG1        0.1145
     43 N         -14.4734    1.8032   -0.4479 N.ar    1  LIG1       -0.2281
     44 H         -12.8208    4.4166    1.8195 H       1  LIG1        0.0662
     45 N         -12.4775    0.8687   -1.0886 N.pl3   1  LIG1       -0.3426
     46 H         -13.0714    0.3837   -1.7453 H       1  LIG1        0.1437
     47 H         -11.5539    1.1238   -1.4106 H       1  LIG1        0.1437
     48 O         -15.3631    4.5628    1.7692 O.3     1  LIG1       -0.5046
     49 H         -16.2434    4.2135    1.9592 H       1  LIG1        0.2922
     50 C         -17.5132    3.7151   -0.0253 C.ar    1  LIG1       -0.0516
     51 C         -18.8860    3.5570   -0.1976 C.ar    1  LIG1       -0.0499
     52 C         -16.6957    2.5839    0.0456 C.ar    1  LIG1        0.0075
     53 C         -19.4703    2.2943   -0.3047 C.ar    1  LIG1        0.0254
     54 H         -19.5279    4.4275   -0.2607 H       1  LIG1        0.0625
     55 C         -17.2604    1.3144   -0.0734 C.ar    1  LIG1       -0.0103
     56 C         -18.6326    1.1684   -0.2424 C.ar    1  LIG1        0.1252
     57 H         -16.6071    0.4494   -0.0467 H       1  LIG1        0.0661
     58 H         -17.0812    4.7066    0.0199 H       1  LIG1        0.0624
     59 O         -19.2128   -0.0552   -0.3537 O.3     1  LIG1       -0.5061
     60 H         -18.5439   -0.7479   -0.3299 H       1  LIG1        0.2922
     61 C         -21.6105    2.8232   -1.5223 C.ar    1  LIG1        0.0332
     62 C         -23.0021    2.7129   -1.6211 C.ar    1  LIG1       -0.0285
     63 C         -20.9459    2.1499   -0.4781 C.ar    1  LIG1        0.0074
     64 C         -23.7343    1.9354   -0.7285 C.ar    1  LIG1        0.0364
     65 H         -23.5304    3.2599   -2.3945 H       1  LIG1        0.0643
     66 C         -21.6843    1.3625    0.3983 C.ar    1  LIG1       -0.0361
     67 C         -23.0703    1.2342    0.2940 C.ar    1  LIG1        0.0361
     68 H         -21.1681    0.8235    1.1813 H       1  LIG1        0.0637
     69 N         -20.9156    3.6268   -2.4124 N.pl3   1  LIG1       -0.3575
     70 H         -19.9371    3.4042   -2.5352 H       1  LIG1        0.1423
     71 H         -21.3972    3.8464   -3.2714 H       1  LIG1        0.1423
     72 C         -23.7550    0.3606    1.2172 C.1     1  LIG1       -0.0689
     73 C         -24.2579   -0.3975    2.0058 C.1     1  LIG1       -0.1139
     74 H         -24.7279   -1.0504    2.7062 H       1  LIG1        0.1232
     75 C         -25.1868    1.8750   -0.9183 C.ar    1  LIG1        0.1612
     76 C         -25.9375    1.9117   -2.0561 C.ar    1  LIG1        0.1138
     77 C         -27.3037    1.8483   -1.6206 C.ar    1  LIG1        0.1846
     78 C         -27.2939    1.7972   -0.2622 C.ar    1  LIG1        0.1839
     79 O         -26.0080    1.8024    0.1677 O.2     1  LIG1       -0.4489
     80 N         -25.5344    2.0008   -3.3917 N.pl3   1  LIG1       -0.3522
     81 H         -24.7114    1.4432   -3.5901 H       1  LIG1        0.1425
     82 H         -26.2968    1.7697   -4.0186 H       1  LIG1        0.1425
     83 O         -28.3527    1.8195   -2.4906 O.3     1  LIG1       -0.5020
     84 H         -29.0582    1.2695   -2.1272 H       1  LIG1        0.2924
     85 C         -28.2337    0.9727    1.9240 C.ar    1  LIG1        0.2234
     86 C         -28.3815    1.6898    0.7107 C.ar    1  LIG1        0.0825
     87 C         -29.6228    2.2550    0.4406 C.ar    1  LIG1       -0.0415
     88 C         -30.6885    2.0846    1.3251 C.ar    1  LIG1       -0.0314
     89 C         -30.4220    1.3388    2.4678 C.ar    1  LIG1        0.0343
     90 N         -29.2364    0.8065    2.7633 N.ar    1  LIG1       -0.2206
     91 H         -29.7473    2.8464   -0.4614 H       1  LIG1        0.0629
     92 H         -31.2084    1.1638    3.1945 H       1  LIG1        0.0833
     93 O         -27.0735    0.4110    2.2885 O.3     1  LIG1       -0.4919
     94 H         -26.3319    0.6696    1.7187 H       1  LIG1        0.2937
     95 C         -32.0525    2.6897    1.0597 C.3     1  LIG1       -0.0383
     96 H         -32.7318    2.4649    1.8816 H       1  LIG1        0.0278
     97 H         -32.4798    2.2886    0.1393 H       1  LIG1        0.0278
     98 H         -31.9764    3.7733    0.9602 H       1  LIG1        0.0278
@<TRIPOS>BOND
     1    82    80    1
     2    11     9    1
     3    10     9    1
     4    81    80    1
     5    80    76    1
     6    71    69    1
     7     9    12    1
     8     9     1    1
     9    70    69    1
    10     8     2    1
    11    83    84    1
    12    83    77    1
    13    69    61    1
    14    65    62    1
    15     1     2   ar
    16     1     6   ar
    17    76    77   ar
    18    76    75   ar
    19     2     3   ar
    20    46    45    1
    21    34    35    1
    22    34    27    1
    23    62    61   ar
    24    62    64   ar
    25    77    78   ar
    26    61    63   ar
    27    47    45    1
    28     6     5   ar
    29    45    38    1
    30    75    64    1
    31    75    79   ar
    32     3     7    1
    33     3     4   ar
    34    64    67   ar
    35    32    27   ar
    36    32    31   ar
    37    63    53    1
    38    63    66   ar
    39     5     4   ar
    40     5    17    1
    41    27    28   ar
    42    91    87    1
    43    43    38   ar
    44    43    42   ar
    45    22    21    1
    46    38    39   ar
    47    59    60    1
    48    59    56    1
    49    53    56   ar
    50    53    51   ar
    51    78    79   ar
    52    78    86    1
    53    54    51    1
    54    56    55   ar
    55    51    50   ar
    56     4    13    1
    57    55    57    1
    58    55    52   ar
    59    50    58    1
    60    50    52   ar
    61    52    42    1
    62    21    17   ar
    63    21    20   ar
    64    97    95    1
    65    17    18   ar
    66    42    41   ar
    67    67    66   ar
    68    67    72    1
    69    66    68    1
    70    87    86   ar
    71    87    88   ar
    72    39    31    1
    73    39    40   ar
    74    31    30   ar
    75    20    28    1
    76    20    19   ar
    77    28    29   ar
    78    15    13    1
    79    86    85   ar
    80    18    23    1
    81    18    19   ar
    82    98    95    1
    83    13    16    1
    84    13    14    1
    85    41    40   ar
    86    41    48    1
    87    95    88    1
    88    95    96    1
    89    40    44    1
    90    72    73    3
    91    23    24    1
    92    19    26    1
    93    88    89   ar
    94    94    93    1
    95    48    49    1
    96    30    29   ar
    97    30    37    1
    98    29    33    1
    99    85    93    1
   100    85    90   ar
   101    26    25    3
   102    73    74    1
   103    89    90   ar
   104    89    92    1
   105    37    36    3
