@<TRIPOS>MOLECULE
mol_data/opt/m06hf/geoms/mol2/6ii6ii6ii6ii.out
 62 65 0 0 0
SMALL
GASTEIGER

@<TRIPOS>ATOM
      1 C          -3.5026   -1.4488   -1.6437 C.ar    1  LIG1        0.0389
      2 C          -2.9039   -2.1283   -0.5824 C.ar    1  LIG1       -0.0404
      3 C          -3.1442   -1.6886    0.7120 C.ar    1  LIG1       -0.0551
      4 C          -3.9552   -0.5779    0.9393 C.ar    1  LIG1       -0.0244
      5 C          -4.4892    0.0486   -0.1964 C.ar    1  LIG1        0.0759
      6 N          -4.2767   -0.3844   -1.4395 N.ar    1  LIG1       -0.2516
      7 H          -2.7094   -2.2137    1.5549 H       1  LIG1        0.0621
      8 H          -2.2778   -2.9897   -0.7722 H       1  LIG1        0.0635
      9 C          -3.3273   -1.8817   -3.0845 C.3     1  LIG1       -0.0223
     10 H          -2.5950   -2.6836   -3.1678 H       1  LIG1        0.0292
     11 H          -3.0044   -1.0276   -3.6784 H       1  LIG1        0.0292
     12 H          -4.2855   -2.2271   -3.4751 H       1  LIG1        0.0292
     13 C          -4.2524   -0.1060    2.3511 C.3     1  LIG1       -0.0377
     14 H          -5.2627    0.2966    2.4172 H       1  LIG1        0.0278
     15 H          -3.5529    0.6741    2.6575 H       1  LIG1        0.0278
     16 H          -4.1559   -0.9416    3.0442 H       1  LIG1        0.0278
     17 C          -6.6812    1.2516   -0.5494 C.ar    1  LIG1        0.0481
     18 C          -5.3573    1.2638   -0.0792 C.ar    1  LIG1        0.0219
     19 C          -4.8737    2.4335    0.4903 C.ar    1  LIG1       -0.0459
     20 C          -5.6754    3.5721    0.5764 C.ar    1  LIG1       -0.0238
     21 C          -6.9709    3.4597    0.0616 C.ar    1  LIG1        0.0759
     22 N          -7.4525    2.3307   -0.4664 N.ar    1  LIG1       -0.2509
     23 H          -3.8558    2.4637    0.8651 H       1  LIG1        0.0628
     24 C          -7.2987    0.0143   -1.1663 C.3     1  LIG1       -0.0217
     25 H          -7.1472   -0.8514   -0.5187 H       1  LIG1        0.0293
     26 H          -6.8220   -0.1943   -2.1242 H       1  LIG1        0.0293
     27 H          -8.3613    0.1989   -1.3047 H       1  LIG1        0.0293
     28 C          -5.1540    4.8449    1.2178 C.3     1  LIG1       -0.0377
     29 H          -5.9552    5.3681    1.7386 H       1  LIG1        0.0278
     30 H          -4.7376    5.5182    0.4660 H       1  LIG1        0.0278
     31 H          -4.3656    4.6008    1.9297 H       1  LIG1        0.0278
     32 C          -9.1193    4.5529    0.8098 C.ar    1  LIG1        0.0481
     33 C          -7.9194    4.6184    0.0831 C.ar    1  LIG1        0.0219
     34 C          -7.6364    5.7845   -0.6146 C.ar    1  LIG1       -0.0459
     35 C          -8.5301    6.8555   -0.6071 C.ar    1  LIG1       -0.0238
     36 C          -9.7035    6.6819    0.1344 C.ar    1  LIG1        0.0759
     37 N          -9.9728    5.5718    0.8271 N.ar    1  LIG1       -0.2509
     38 H          -6.7124    5.8586   -1.1788 H       1  LIG1        0.0628
     39 C          -9.4979    3.3254    1.6115 C.3     1  LIG1       -0.0217
     40 H          -8.6768    3.0311    2.2685 H       1  LIG1        0.0293
     41 H          -9.7015    2.4949    0.9351 H       1  LIG1        0.0293
     42 H         -10.3822    3.5624    2.1982 H       1  LIG1        0.0293
     43 C          -8.2174    8.1385   -1.3543 C.3     1  LIG1       -0.0377
     44 H          -8.5845    9.0029   -0.8015 H       1  LIG1        0.0278
     45 H          -8.6873    8.1399   -2.3395 H       1  LIG1        0.0278
     46 H          -7.1398    8.2325   -1.4894 H       1  LIG1        0.0278
     47 C         -11.0618    8.3793    1.4195 C.ar    1  LIG1        0.0474
     48 C         -10.7447    7.7572    0.1989 C.ar    1  LIG1        0.0219
     49 C         -11.4276    8.1497   -0.9442 C.ar    1  LIG1       -0.0465
     50 C         -12.4080    9.1400   -0.8703 C.ar    1  LIG1       -0.0317
     51 C         -12.6382    9.6910    0.3854 C.ar    1  LIG1        0.0308
     52 N         -11.9904    9.3287    1.4931 N.ar    1  LIG1       -0.2592
     53 H         -11.2072    7.6704   -1.8928 H       1  LIG1        0.0628
     54 H         -13.3875   10.4665    0.5081 H       1  LIG1        0.0832
     55 C         -10.3620    7.9998    2.7074 C.3     1  LIG1       -0.0217
     56 H          -9.2780    8.0419    2.5810 H       1  LIG1        0.0293
     57 H         -10.6296    6.9798    2.9851 H       1  LIG1        0.0293
     58 H         -10.6761    8.6976    3.4801 H       1  LIG1        0.0293
     59 C         -13.1820    9.5868   -2.0942 C.3     1  LIG1       -0.0383
     60 H         -13.9192   10.3420   -1.8237 H       1  LIG1        0.0278
     61 H         -13.7016    8.7395   -2.5439 H       1  LIG1        0.0278
     62 H         -12.5067   10.0112   -2.8387 H       1  LIG1        0.0278
@<TRIPOS>BOND
     1    11     9    1
     2    12     9    1
     3    10     9    1
     4     9     1    1
     5    62    59    1
     6    61    59    1
     7    45    43    1
     8    26    24    1
     9    59    60    1
    10    59    50    1
    11    53    49    1
    12     1     6   ar
    13     1     2   ar
    14    46    43    1
    15     6     5   ar
    16    43    44    1
    17    43    35    1
    18    27    24    1
    19    38    34    1
    20    24    17    1
    21    24    25    1
    22    49    50   ar
    23    49    48   ar
    24    50    51   ar
    25     8     2    1
    26    34    35   ar
    27    34    33   ar
    28    35    36   ar
    29     2     3   ar
    30    17    22   ar
    31    17    18   ar
    32    22    21   ar
    33     5    18    1
    34     5     4   ar
    35    18    19   ar
    36    21    33    1
    37    21    20   ar
    38    33    32   ar
    39    36    48    1
    40    36    37   ar
    41    48    47   ar
    42    51    54    1
    43    51    52   ar
    44    30    28    1
    45    19    20   ar
    46    19    23    1
    47    20    28    1
    48     3     4   ar
    49     3     7    1
    50    32    37   ar
    51    32    39    1
    52    41    39    1
    53     4    13    1
    54    28    29    1
    55    28    31    1
    56    47    52   ar
    57    47    55    1
    58    39    42    1
    59    39    40    1
    60    13    14    1
    61    13    15    1
    62    13    16    1
    63    56    55    1
    64    55    57    1
    65    55    58    1
