@<TRIPOS>MOLECULE
mol_data/opt/m06hf/geoms/mol2/6ii6ii.out
 32 33 0 0 0
SMALL
GASTEIGER

@<TRIPOS>ATOM
      1 C          -4.4563   -1.9850   -0.7841 C.ar    1  LIG1        0.0389
      2 C          -3.1925   -2.1310   -0.2139 C.ar    1  LIG1       -0.0404
      3 C          -2.6462   -1.0633    0.4874 C.ar    1  LIG1       -0.0551
      4 C          -3.3511    0.1316    0.6003 C.ar    1  LIG1       -0.0244
      5 C          -4.6053    0.1824   -0.0266 C.ar    1  LIG1        0.0759
      6 N          -5.1408   -0.8444   -0.6833 N.ar    1  LIG1       -0.2516
      7 H          -1.6732   -1.1591    0.9549 H       1  LIG1        0.0621
      8 H          -2.6564   -3.0655   -0.3110 H       1  LIG1        0.0635
      9 C          -5.1312   -3.1041   -1.5497 C.3     1  LIG1       -0.0223
     10 H          -4.5165   -4.0031   -1.5533 H       1  LIG1        0.0292
     11 H          -5.3097   -2.7820   -2.5759 H       1  LIG1        0.0292
     12 H          -6.0947   -3.3234   -1.0898 H       1  LIG1        0.0292
     13 C          -2.8035    1.3088    1.3850 C.3     1  LIG1       -0.0377
     14 H          -3.5796    1.7336    2.0230 H       1  LIG1        0.0278
     15 H          -2.4515    2.0954    0.7157 H       1  LIG1        0.0278
     16 H          -1.9694    0.9839    2.0065 H       1  LIG1        0.0278
     17 C          -6.5956    1.4788    0.8187 C.ar    1  LIG1        0.0474
     18 C          -5.4305    1.4324    0.0348 C.ar    1  LIG1        0.0219
     19 C          -5.0604    2.5653   -0.6761 C.ar    1  LIG1       -0.0465
     20 C          -5.8403    3.7203   -0.6068 C.ar    1  LIG1       -0.0317
     21 C          -6.9694    3.6585    0.2035 C.ar    1  LIG1        0.0308
     22 N          -7.3382    2.5794    0.8945 N.ar    1  LIG1       -0.2592
     23 H          -4.1684    2.5435   -1.2945 H       1  LIG1        0.0628
     24 H          -7.6138    4.5259    0.3018 H       1  LIG1        0.0832
     25 C          -7.0538    0.2725    1.6114 C.3     1  LIG1       -0.0217
     26 H          -6.2455   -0.0951    2.2474 H       1  LIG1        0.0293
     27 H          -7.3375   -0.5299    0.9291 H       1  LIG1        0.0293
     28 H          -7.9046    0.5675    2.2209 H       1  LIG1        0.0293
     29 C          -5.4755    4.9750   -1.3744 C.3     1  LIG1       -0.0383
     30 H          -6.2262    5.7490   -1.2178 H       1  LIG1        0.0278
     31 H          -5.4136    4.7614   -2.4424 H       1  LIG1        0.0278
     32 H          -4.5086    5.3570   -1.0429 H       1  LIG1        0.0278
@<TRIPOS>BOND
     1    11     9    1
     2    31    29    1
     3    10     9    1
     4     9    12    1
     5     9     1    1
     6    29    30    1
     7    29    32    1
     8    29    20    1
     9    23    19    1
    10     1     6   ar
    11     1     2   ar
    12     6     5   ar
    13    19    20   ar
    14    19    18   ar
    15    20    21   ar
    16     8     2    1
    17     2     3   ar
    18     5    18    1
    19     5     4   ar
    20    18    17   ar
    21    21    24    1
    22    21    22   ar
    23     3     4   ar
    24     3     7    1
    25     4    13    1
    26    15    13    1
    27    17    22   ar
    28    17    25    1
    29    27    25    1
    30    13    16    1
    31    13    14    1
    32    25    28    1
    33    25    26    1
