@<TRIPOS>MOLECULE
mol_data/opt/m06hf/geoms/mol2/6ii6hf6fe6ha-.out
 52 55 0 0 0
SMALL
GASTEIGER

@<TRIPOS>ATOM
      1 C          -4.1188   -2.0364   -0.9419 C.ar    1  LIG1        0.0389
      2 C          -2.9596   -2.2044   -0.1845 C.ar    1  LIG1       -0.0404
      3 C          -2.6015   -1.2055    0.7073 C.ar    1  LIG1       -0.0551
      4 C          -3.3616   -0.0409    0.8217 C.ar    1  LIG1       -0.0243
      5 C          -4.4785    0.0600   -0.0235 C.ar    1  LIG1        0.0775
      6 N          -4.8454   -0.9262   -0.8492 N.ar    1  LIG1       -0.2515
      7 H          -1.7280   -1.3293    1.3371 H       1  LIG1        0.0621
      8 H          -2.3733   -3.1086   -0.2784 H       1  LIG1        0.0635
      9 C          -4.6300   -3.1042   -1.8863 C.3     1  LIG1       -0.0223
     10 H          -3.8586   -3.8449   -2.0900 H       1  LIG1        0.0292
     11 H          -4.9465   -2.6378   -2.8178 H       1  LIG1        0.0292
     12 H          -5.4906   -3.6043   -1.4380 H       1  LIG1        0.0292
     13 C          -2.9811    1.0003    1.8596 C.3     1  LIG1       -0.0377
     14 H          -3.8598    1.5408    2.2085 H       1  LIG1        0.0278
     15 H          -2.2652    1.7193    1.4560 H       1  LIG1        0.0278
     16 H          -2.5151    0.5012    2.7090 H       1  LIG1        0.0278
     17 C          -6.7634    1.1852   -0.1029 C.ar    1  LIG1        0.1263
     18 C          -5.3439    1.2784   -0.0597 C.ar    1  LIG1        0.0436
     19 C          -4.8009    2.5488   -0.0474 C.ar    1  LIG1       -0.0056
     20 C          -5.6060    3.6883   -0.0638 C.ar    1  LIG1        0.1436
     21 C          -6.9842    3.5162   -0.1240 C.ar    1  LIG1        0.1195
     22 N          -7.5152    2.2798   -0.1105 N.ar    1  LIG1       -0.2279
     23 H          -3.7288    2.6956   -0.0267 H       1  LIG1        0.0662
     24 N          -7.4060   -0.0193   -0.0943 N.pl3   1  LIG1       -0.3426
     25 H          -8.3909    0.0219   -0.3100 H       1  LIG1        0.1437
     26 H          -6.8777   -0.7843   -0.4950 H       1  LIG1        0.1437
     27 O          -4.9871    4.9102   -0.0176 O.3     1  LIG1       -0.5046
     28 H          -5.4924    5.5083    0.5487 H       1  LIG1        0.2922
     29 C          -9.2803    4.4724    0.3034 C.ar    1  LIG1        0.2225
     30 C          -7.9507    4.6442   -0.1726 C.ar    1  LIG1        0.0665
     31 C          -7.6394    5.8963   -0.6823 C.ar    1  LIG1       -0.0298
     32 C          -8.5680    6.9427   -0.6585 C.ar    1  LIG1        0.0516
     33 C          -9.8435    6.6826   -0.1213 C.ar    1  LIG1        0.0934
     34 N         -10.1515    5.4652    0.3350 N.ar    1  LIG1       -0.2111
     35 H          -6.6663    6.0830   -1.1181 H       1  LIG1        0.0639
     36 O          -9.7114    3.2985    0.7365 O.3     1  LIG1       -0.4919
     37 H          -9.0261    2.6201    0.4719 H       1  LIG1        0.2937
     38 C          -8.1276    8.2341   -1.1242 C.1     1  LIG1       -0.0675
     39 C          -7.6872    9.2818   -1.5167 C.1     1  LIG1       -0.1138
     40 H          -7.3075   10.2175   -1.8557 H       1  LIG1        0.1232
     41 C         -11.8401    7.7379    1.0447 C.ar    1  LIG1        0.1254
     42 C         -10.9117    7.7125   -0.0358 C.ar    1  LIG1        0.0412
     43 C         -11.0572    8.6795   -1.0249 C.ar    1  LIG1       -0.0478
     44 C         -12.0391    9.6581   -0.9216 C.ar    1  LIG1       -0.0428
     45 C         -12.8513    9.6252    0.2052 C.ar    1  LIG1        0.0297
     46 N         -12.7663    8.6982    1.1505 N.ar    1  LIG1       -0.2401
     47 H         -10.3997    8.6592   -1.8834 H       1  LIG1        0.0626
     48 H         -13.6222   10.3736    0.3518 H       1  LIG1        0.0830
     49 N         -11.8202    6.8210    2.0489 N.pl3   1  LIG1       -0.3426
     50 H         -12.6031    6.8845    2.6810 H       1  LIG1        0.1437
     51 H         -11.4340    5.9116    1.8324 H       1  LIG1        0.1437
     52 H         -12.1682   10.4145   -1.6811 H       1  LIG1        0.0633
@<TRIPOS>BOND
     1    11     9    1
     2    10     9    1
     3     9    12    1
     4     9     1    1
     5    47    43    1
     6    40    39    1
     7    52    44    1
     8    39    38    3
     9    38    32    1
    10    35    31    1
    11    43    44   ar
    12    43    42   ar
    13     1     6   ar
    14     1     2   ar
    15    44    45   ar
    16     6     5   ar
    17    31    32   ar
    18    31    30   ar
    19    32    33   ar
    20    26    24    1
    21    25    24    1
    22     8     2    1
    23     2     3   ar
    24    30    21    1
    25    30    29   ar
    26    21    22   ar
    27    21    20   ar
    28    33    42    1
    29    33    34   ar
    30    22    17   ar
    31    17    24    1
    32    17    18   ar
    33    20    19   ar
    34    20    27    1
    35    18    19   ar
    36    18     5    1
    37    19    23    1
    38    42    41   ar
    39     5     4   ar
    40    27    28    1
    41    45    48    1
    42    45    46   ar
    43    29    34   ar
    44    29    36    1
    45    37    36    1
    46     3     4   ar
    47     3     7    1
    48     4    13    1
    49    41    46   ar
    50    41    49    1
    51    15    13    1
    52    51    49    1
    53    13    14    1
    54    13    16    1
    55    49    50    1
