@<TRIPOS>MOLECULE
mol_data/opt/m06hf/geoms/mol2/6il13ie-6id4he.out
 58 61 0 0 0
SMALL
GASTEIGER

@<TRIPOS>ATOM
      1 C          -4.4742   -1.9282   -0.9311 C.ar    1  LIG1        0.0392
      2 C          -3.0943   -1.9953   -1.0775 C.ar    1  LIG1       -0.0372
      3 C          -2.3270   -0.8567   -0.8388 C.ar    1  LIG1       -0.0161
      4 C          -2.9590    0.3160   -0.4464 C.ar    1  LIG1        0.1474
      5 C          -4.3561    0.2940   -0.2746 C.ar    1  LIG1        0.1291
      6 N          -5.0671   -0.7997   -0.5359 N.ar    1  LIG1       -0.2467
      7 H          -1.2552   -0.8893   -0.9759 H       1  LIG1        0.0655
      8 H          -2.6216   -2.9173   -1.3865 H       1  LIG1        0.0636
      9 C          -5.3832   -3.1101   -1.1954 C.3     1  LIG1       -0.0223
     10 H          -4.8153   -3.9638   -1.5617 H       1  LIG1        0.0292
     11 H          -6.1328   -2.8317   -1.9367 H       1  LIG1        0.0292
     12 H          -5.8971   -3.3876   -0.2747 H       1  LIG1        0.0292
     13 O          -2.3311    1.4937   -0.2415 O.3     1  LIG1       -0.4929
     14 C          -0.9215    1.5341   -0.3600 C.3     1  LIG1        0.0789
     15 H          -0.6358    2.5537   -0.1142 H       1  LIG1        0.0660
     16 H          -0.4556    0.8397    0.3439 H       1  LIG1        0.0660
     17 H          -0.6128    1.2985   -1.3813 H       1  LIG1        0.0660
     18 C          -5.1602    1.4659    0.1401 C.ar    1  LIG1        0.0731
     19 C          -4.9466    2.6730    0.7911 C.ar    1  LIG1       -0.0076
     20 C          -6.2276    3.2978    0.8799 C.ar    1  LIG1        0.0535
     21 C          -7.1697    2.4516    0.3034 C.ar    1  LIG1        0.0645
     22 N          -6.4973    1.3635   -0.1274 N.ar    1  LIG1       -0.3516
     23 H          -6.8706    0.5419   -0.5831 H       1  LIG1        0.1660
     24 C          -3.6987    3.2763    1.3898 C.3     1  LIG1       -0.0365
     25 H          -3.9973    4.0435    2.1038 H       1  LIG1        0.0279
     26 H          -3.0825    3.7315    0.6145 H       1  LIG1        0.0279
     27 H          -3.1079    2.5174    1.8989 H       1  LIG1        0.0279
     28 C          -6.5059    4.5621    1.4945 C.1     1  LIG1       -0.0673
     29 C          -6.7361    5.6273    2.0048 C.1     1  LIG1       -0.1138
     30 H          -6.9441    6.5675    2.4602 H       1  LIG1        0.1232
     31 C          -9.5453    1.5760    0.3224 C.ar    1  LIG1        0.0481
     32 C          -8.6231    2.6256    0.1395 C.ar    1  LIG1        0.0218
     33 C          -9.1259    3.8837   -0.1773 C.ar    1  LIG1       -0.0314
     34 C         -10.4993    4.0470   -0.3346 C.ar    1  LIG1        0.0784
     35 C         -11.3472    2.9342   -0.2025 C.ar    1  LIG1        0.0904
     36 N         -10.8539    1.7468    0.1396 N.ar    1  LIG1       -0.2499
     37 H          -8.4579    4.7284   -0.2851 H       1  LIG1        0.0638
     38 C          -9.1318    0.1827    0.7537 C.3     1  LIG1       -0.0217
     39 H          -8.2800    0.2156    1.4322 H       1  LIG1        0.0293
     40 H          -8.8693   -0.4247   -0.1175 H       1  LIG1        0.0293
     41 H          -9.9894   -0.2788    1.2372 H       1  LIG1        0.0293
     42 N         -11.4273    6.4163   -0.8442 N.1     1  LIG1       -0.1908
     43 C         -11.0308    5.3655   -0.6083 C.1     1  LIG1        0.1013
     44 C         -13.4337    3.5532   -1.5121 C.ar    1  LIG1        0.0339
     45 C         -14.8351    3.6621   -1.5391 C.ar    1  LIG1       -0.0393
     46 C         -12.8283    3.0370   -0.3523 C.ar    1  LIG1        0.0234
     47 C         -15.6032    3.2486   -0.4691 C.ar    1  LIG1       -0.0446
     48 H         -15.3092    4.0554   -2.4293 H       1  LIG1        0.0636
     49 C         -13.6144    2.5838    0.7053 C.ar    1  LIG1       -0.0353
     50 C         -15.0016    2.6892    0.6673 C.ar    1  LIG1        0.0254
     51 H         -13.1284    2.1564    1.5723 H       1  LIG1        0.0637
     52 H         -16.6805    3.3388   -0.5059 H       1  LIG1        0.0630
     53 N         -12.7099    3.8816   -2.6446 N.pl3   1  LIG1       -0.3575
     54 H         -11.7063    3.9219   -2.5576 H       1  LIG1        0.1423
     55 H         -13.0896    4.6270   -3.2095 H       1  LIG1        0.1423
     56 C         -15.8036    2.2339    1.7769 C.1     1  LIG1       -0.0696
     57 C         -16.4727    1.8528    2.6999 C.1     1  LIG1       -0.1139
     58 H         -17.0621    1.5144    3.5195 H       1  LIG1        0.1232
@<TRIPOS>BOND
     1    55    53    1
     2    53    54    1
     3    53    44    1
     4    48    45    1
     5    11     9    1
     6    10     9    1
     7    45    44   ar
     8    45    47   ar
     9    44    46   ar
    10     8     2    1
    11    17    14    1
    12     9     1    1
    13     9    12    1
    14     2     1   ar
    15     2     3   ar
    16     7     3    1
    17     1     6   ar
    18    42    43    3
    19     3     4   ar
    20    43    34    1
    21    23    22    1
    22     6     5   ar
    23    52    47    1
    24    47    50   ar
    25     4     5   ar
    26     4    13    1
    27    14    13    1
    28    14    15    1
    29    14    16    1
    30    46    35    1
    31    46    49   ar
    32    34    35   ar
    33    34    33   ar
    34    37    33    1
    35     5    18    1
    36    35    36   ar
    37    33    32   ar
    38    22    18   ar
    39    22    21   ar
    40    40    38    1
    41    32    21    1
    42    32    31   ar
    43    36    31   ar
    44    18    19   ar
    45    21    20   ar
    46    31    38    1
    47    26    24    1
    48    50    49   ar
    49    50    56    1
    50    49    51    1
    51    38    41    1
    52    38    39    1
    53    19    20   ar
    54    19    24    1
    55    20    28    1
    56    24    27    1
    57    24    25    1
    58    28    29    3
    59    56    57    3
    60    29    30    1
    61    57    58    1
