@<TRIPOS>MOLECULE
mol_data/opt/m06hf/geoms/mol2/6il13ad4de12di.out
 51 54 0 0 0
SMALL
GASTEIGER

@<TRIPOS>ATOM
      1 C          -4.5074   -2.0133   -0.7323 C.ar    1  LIG1        0.0392
      2 C          -3.1233   -2.1178   -0.6532 C.ar    1  LIG1       -0.0372
      3 C          -2.3665   -1.0028   -0.2974 C.ar    1  LIG1       -0.0161
      4 C          -3.0175    0.1935   -0.0281 C.ar    1  LIG1        0.1474
      5 C          -4.4208    0.2157   -0.1286 C.ar    1  LIG1        0.1288
      6 N          -5.1234   -0.8583   -0.4691 N.ar    1  LIG1       -0.2467
      7 H          -1.2898   -1.0773   -0.2344 H       1  LIG1        0.0655
      8 H          -2.6360   -3.0586   -0.8688 H       1  LIG1        0.0636
      9 C          -5.3915   -3.1792   -1.1221 C.3     1  LIG1       -0.0223
     10 H          -4.7994   -4.0804   -1.2735 H       1  LIG1        0.0292
     11 H          -5.9231   -2.9405   -2.0436 H       1  LIG1        0.0292
     12 H          -6.1254   -3.3576   -0.3361 H       1  LIG1        0.0292
     13 O          -2.4099    1.3478    0.3238 O.3     1  LIG1       -0.4929
     14 C          -0.9923    1.3751    0.3445 C.3     1  LIG1        0.0789
     15 H          -0.7209    2.3942    0.6039 H       1  LIG1        0.0660
     16 H          -0.6062    0.6861    1.0993 H       1  LIG1        0.0660
     17 H          -0.5912    1.1218   -0.6394 H       1  LIG1        0.0660
     18 C          -5.2095    1.4335    0.1262 C.ar    1  LIG1        0.0703
     19 C          -4.9052    2.7325    0.4774 C.ar    1  LIG1       -0.0168
     20 C          -6.1381    3.4342    0.5284 C.ar    1  LIG1        0.0776
     21 C          -7.1525    2.5408    0.2098 C.ar    1  LIG1        0.0658
     22 N          -6.5648    1.3441   -0.0176 N.ar    1  LIG1       -0.3518
     23 H          -7.0068    0.4861   -0.3247 H       1  LIG1        0.1660
     24 H          -3.9284    3.1310    0.6776 H       1  LIG1        0.0652
     25 N          -6.4879    5.8878    1.2549 N.1     1  LIG1       -0.1908
     26 C          -6.3336    4.7998    0.9226 C.1     1  LIG1        0.1013
     27 C          -9.2116    3.7531   -0.5749 C.ar    1  LIG1        0.0616
     28 C         -10.5963    3.8957   -0.6099 C.ar    1  LIG1       -0.0318
     29 C          -8.6155    2.7167    0.1580 C.ar    1  LIG1        0.0181
     30 C         -11.4164    3.0061    0.0816 C.ar    1  LIG1        0.0351
     31 H         -11.0292    4.6932   -1.1995 H       1  LIG1        0.0638
     32 C          -9.4409    1.8331    0.8489 C.ar    1  LIG1       -0.0353
     33 C         -10.8309    1.9634    0.8227 C.ar    1  LIG1        0.0361
     34 H          -9.0018    1.0470    1.4490 H       1  LIG1        0.0637
     35 N          -7.8006    5.3550   -2.0512 N.1     1  LIG1       -0.1908
     36 C          -8.4069    4.6492   -1.3804 C.1     1  LIG1        0.0998
     37 C         -11.6082    1.0396    1.6133 C.1     1  LIG1       -0.0689
     38 C         -12.2013    0.2570    2.3051 C.1     1  LIG1       -0.1139
     39 H         -12.7381   -0.4324    2.9160 H       1  LIG1        0.1232
     40 C         -12.8754    3.1855    0.0112 C.ar    1  LIG1        0.1535
     41 C         -13.6590    4.3038   -0.0668 C.ar    1  LIG1        0.1003
     42 C         -15.0303    3.8611   -0.1395 C.ar    1  LIG1        0.0053
     43 C         -14.9484    2.5105   -0.1005 C.ar    1  LIG1        0.0967
     44 O         -13.6619    2.1032   -0.0139 O.2     1  LIG1       -0.4613
     45 H         -15.6946    1.7363   -0.1289 H       1  LIG1        0.1032
     46 N         -12.8926    6.7685   -0.0692 N.1     1  LIG1       -0.1907
     47 C         -13.2197    5.6682   -0.0583 C.1     1  LIG1        0.1032
     48 C         -16.2488    4.7397   -0.2314 C.3     1  LIG1       -0.0355
     49 H         -17.1455    4.1265   -0.3083 H       1  LIG1        0.0279
     50 H         -16.1805    5.3825   -1.1095 H       1  LIG1        0.0279
     51 H         -16.3233    5.3710    0.6542 H       1  LIG1        0.0279
@<TRIPOS>BOND
     1    35    36    3
     2    11     9    1
     3    36    27    1
     4    10     9    1
     5    31    28    1
     6     9     1    1
     7     9    12    1
     8    50    48    1
     9     8     2    1
    10     1     2   ar
    11     1     6   ar
    12     2     3   ar
    13    17    14    1
    14    28    27   ar
    15    28    30   ar
    16    27    29   ar
    17     6     5   ar
    18    23    22    1
    19    49    48    1
    20     3     7    1
    21     3     4   ar
    22    48    42    1
    23    48    51    1
    24    42    43   ar
    25    42    41   ar
    26    45    43    1
    27     5     4   ar
    28     5    18    1
    29    43    44   ar
    30    46    47    3
    31    41    47    1
    32    41    40   ar
    33     4    13    1
    34    22    18   ar
    35    22    21   ar
    36    44    40   ar
    37    40    30    1
    38    30    33   ar
    39    18    19   ar
    40    29    21    1
    41    29    32   ar
    42    21    20   ar
    43    13    14    1
    44    14    15    1
    45    14    16    1
    46    19    20   ar
    47    19    24    1
    48    20    26    1
    49    33    32   ar
    50    33    37    1
    51    32    34    1
    52    26    25    3
    53    37    38    3
    54    38    39    1
