@<TRIPOS>MOLECULE
mol_data/opt/m06hf/geoms/mol2/6il6il6il6il.out
 66 69 0 0 0
SMALL
GASTEIGER

@<TRIPOS>ATOM
      1 C           6.8290    1.6907    0.8479 C.ar    1  LIG1        0.0392
      2 C           7.7506    0.7424    0.4217 C.ar    1  LIG1       -0.0372
      3 C           7.2976   -0.4427   -0.1544 C.ar    1  LIG1       -0.0161
      4 C           5.9294   -0.6469   -0.2808 C.ar    1  LIG1        0.1460
      5 C           5.0574    0.3635    0.1778 C.ar    1  LIG1        0.1145
      6 N           5.5157    1.4828    0.7202 N.ar    1  LIG1       -0.2482
      7 H           8.0072   -1.1836   -0.4963 H       1  LIG1        0.0655
      8 H           8.8109    0.9243    0.5324 H       1  LIG1        0.0636
      9 C           7.2380    3.0068    1.4750 C.3     1  LIG1       -0.0223
     10 H           8.3221    3.0947    1.5321 H       1  LIG1        0.0292
     11 H           6.8156    3.0762    2.4774 H       1  LIG1        0.0292
     12 H           6.8394    3.8288    0.8794 H       1  LIG1        0.0292
     13 O           5.3697   -1.7571   -0.8243 O.3     1  LIG1       -0.4930
     14 C           6.2296   -2.7006   -1.4376 C.3     1  LIG1        0.0789
     15 H           5.5796   -3.4587   -1.8653 H       1  LIG1        0.0660
     16 H           6.8168   -2.2271   -2.2281 H       1  LIG1        0.0660
     17 H           6.8940   -3.1578   -0.7001 H       1  LIG1        0.0660
     18 C           2.7807    1.2861   -0.3872 C.ar    1  LIG1        0.0484
     19 C           3.5746    0.2244    0.0666 C.ar    1  LIG1        0.0284
     20 C           2.9518   -0.9646    0.4438 C.ar    1  LIG1       -0.0068
     21 C           1.5688   -1.0664    0.3790 C.ar    1  LIG1        0.1466
     22 C           0.8409    0.0484   -0.0739 C.ar    1  LIG1        0.1146
     23 N           1.4538    1.1674   -0.4417 N.ar    1  LIG1       -0.2475
     24 H           3.5607   -1.7934    0.7750 H       1  LIG1        0.0662
     25 C           3.3424    2.6136   -0.8572 C.3     1  LIG1       -0.0217
     26 H           4.2373    2.4654   -1.4622 H       1  LIG1        0.0293
     27 H           3.6148    3.2296   -0.0006 H       1  LIG1        0.0293
     28 H           2.5686    3.1085   -1.4407 H       1  LIG1        0.0293
     29 O           0.8761   -2.1847    0.7208 O.3     1  LIG1       -0.4929
     30 C           1.6163   -3.3676    0.9634 C.3     1  LIG1        0.0789
     31 H           0.8801   -4.1563    1.0917 H       1  LIG1        0.0660
     32 H           2.2630   -3.5949    0.1121 H       1  LIG1        0.0660
     33 H           2.2166   -3.2716    1.8717 H       1  LIG1        0.0660
     34 C          -1.3111    0.5582   -1.2892 C.ar    1  LIG1        0.0484
     35 C          -0.6488    0.0280   -0.1740 C.ar    1  LIG1        0.0284
     36 C          -1.4106   -0.5011    0.8674 C.ar    1  LIG1       -0.0068
     37 C          -2.7960   -0.4813    0.7842 C.ar    1  LIG1        0.1466
     38 C          -3.3866    0.0765   -0.3634 C.ar    1  LIG1        0.1146
     39 N          -2.6433    0.5667   -1.3485 N.ar    1  LIG1       -0.2475
     40 H          -0.9059   -0.9270    1.7222 H       1  LIG1        0.0662
     41 C          -0.5971    1.1338   -2.4961 C.3     1  LIG1       -0.0217
     42 H           0.2503    0.5101   -2.7817 H       1  LIG1        0.0293
     43 H          -0.2167    2.1286   -2.2668 H       1  LIG1        0.0293
     44 H          -1.3194    1.1874   -3.3083 H       1  LIG1        0.0293
     45 O          -3.6189   -0.9780    1.7456 O.3     1  LIG1       -0.4929
     46 C          -3.0283   -1.7118    2.8019 C.3     1  LIG1        0.0789
     47 H          -3.8555   -2.1048    3.3870 H       1  LIG1        0.0660
     48 H          -2.4264   -2.5346    2.4072 H       1  LIG1        0.0660
     49 H          -2.4078   -1.0651    3.4271 H       1  LIG1        0.0660
     50 C          -5.4689   -0.2033   -1.7552 C.ar    1  LIG1        0.0477
     51 C          -4.8694    0.1362   -0.5357 C.ar    1  LIG1        0.0284
     52 C          -5.6721    0.5671    0.5246 C.ar    1  LIG1       -0.0074
     53 C          -7.0427    0.6567    0.3321 C.ar    1  LIG1        0.1387
     54 C          -7.5545    0.3065   -0.9198 C.ar    1  LIG1        0.0695
     55 N          -6.7945   -0.1119   -1.9176 N.ar    1  LIG1       -0.2559
     56 H          -5.2096    0.8155    1.4689 H       1  LIG1        0.0662
     57 H          -8.6234    0.3721   -1.0855 H       1  LIG1        0.0867
     58 C          -4.6938   -0.7029   -2.9586 C.3     1  LIG1       -0.0217
     59 H          -3.9083   -1.3964   -2.6583 H       1  LIG1        0.0293
     60 H          -4.2209    0.1340   -3.4720 H       1  LIG1        0.0293
     61 H          -5.4023   -1.1945   -3.6220 H       1  LIG1        0.0293
     62 O          -7.9430    1.0554    1.2685 O.3     1  LIG1       -0.4936
     63 C          -7.4435    1.3643    2.5543 C.3     1  LIG1        0.0789
     64 H          -8.3084    1.6320    3.1551 H       1  LIG1        0.0660
     65 H          -6.9405    0.4972    2.9910 H       1  LIG1        0.0660
     66 H          -6.7503    2.2085    2.5083 H       1  LIG1        0.0660
@<TRIPOS>BOND
     1    61    58    1
     2    60    58    1
     3    44    41    1
     4    58    59    1
     5    58    50    1
     6    42    41    1
     7    41    43    1
     8    41    34    1
     9    16    14    1
    10    55    50   ar
    11    55    54   ar
    12    15    14    1
    13    50    51   ar
    14    26    25    1
    15    28    25    1
    16    14    13    1
    17    14    17    1
    18    39    34   ar
    19    39    38   ar
    20    34    35   ar
    21    57    54    1
    22    54    53   ar
    23    25    18    1
    24    25    27    1
    25    13     4    1
    26    51    38    1
    27    51    52   ar
    28     7     3    1
    29    23    18   ar
    30    23    22   ar
    31    18    19   ar
    32    38    37   ar
    33     4     3   ar
    34     4     5   ar
    35    35    22    1
    36    35    36   ar
    37     3     2   ar
    38    22    21   ar
    39    19     5    1
    40    19    20   ar
    41    32    30    1
    42     5     6   ar
    43    53    52   ar
    44    53    62    1
    45    21    20   ar
    46    21    29    1
    47     2     8    1
    48     2     1   ar
    49    20    24    1
    50    52    56    1
    51     6     1   ar
    52    29    30    1
    53    37    36   ar
    54    37    45    1
    55     1     9    1
    56    36    40    1
    57    12     9    1
    58    30    31    1
    59    30    33    1
    60    62    63    1
    61     9    10    1
    62     9    11    1
    63    45    46    1
    64    48    46    1
    65    66    63    1
    66    63    65    1
    67    63    64    1
    68    46    47    1
    69    46    49    1
