@<TRIPOS>MOLECULE
mol_data/opt/m06hf/geoms/mol2/6il6il-.out
 34 35 0 0 0
SMALL
GASTEIGER

@<TRIPOS>ATOM
      1 C          -4.4846   -2.0472    0.5558 C.ar    1  LIG1        0.0392
      2 C          -3.1693   -2.1419    0.1178 C.ar    1  LIG1       -0.0372
      3 C          -2.5222   -1.0071   -0.3685 C.ar    1  LIG1       -0.0161
      4 C          -3.2159    0.1957   -0.3898 C.ar    1  LIG1        0.1460
      5 C          -4.5315    0.2184    0.1156 C.ar    1  LIG1        0.1145
      6 N          -5.1357   -0.8792    0.5475 N.ar    1  LIG1       -0.2482
      7 H          -1.5065   -1.0767   -0.7330 H       1  LIG1        0.0655
      8 H          -2.6548   -3.0930    0.1427 H       1  LIG1        0.0636
      9 C          -5.2564   -3.2413    1.0773 C.3     1  LIG1       -0.0223
     10 H          -4.6630   -4.1516    1.0049 H       1  LIG1        0.0292
     11 H          -6.1728   -3.3596    0.4991 H       1  LIG1        0.0292
     12 H          -5.5304   -3.0705    2.1185 H       1  LIG1        0.0292
     13 O          -2.7302    1.3588   -0.8825 O.3     1  LIG1       -0.4930
     14 C          -1.3592    1.4086   -1.2271 C.3     1  LIG1        0.0789
     15 H          -1.1627    2.4379   -1.5154 H       1  LIG1        0.0660
     16 H          -0.7384    1.1379   -0.3683 H       1  LIG1        0.0660
     17 H          -1.1466    0.7447   -2.0684 H       1  LIG1        0.0660
     18 C          -4.8835    2.6745    0.7282 C.ar    1  LIG1        0.0477
     19 C          -5.3315    1.4815    0.1283 C.ar    1  LIG1        0.0284
     20 C          -6.5957    1.4501   -0.4384 C.ar    1  LIG1       -0.0074
     21 C          -7.3752    2.6039   -0.4403 C.ar    1  LIG1        0.1387
     22 C          -6.8449    3.7487    0.1509 C.ar    1  LIG1        0.0695
     23 N          -5.6421    3.7649    0.7249 N.ar    1  LIG1       -0.2559
     24 H          -6.9847    0.5397   -0.8754 H       1  LIG1        0.0662
     25 H          -7.3972    4.6788    0.1838 H       1  LIG1        0.0867
     26 C          -3.5533    2.8022    1.4427 C.3     1  LIG1       -0.0217
     27 H          -3.6910    3.4638    2.2957 H       1  LIG1        0.0293
     28 H          -2.8155    3.2385    0.7676 H       1  LIG1        0.0293
     29 H          -3.1895    1.8313    1.7799 H       1  LIG1        0.0293
     30 O          -8.5991    2.5250   -1.0215 O.3     1  LIG1       -0.4936
     31 C          -9.4053    3.6877   -1.0110 C.3     1  LIG1        0.0789
     32 H         -10.3309    3.4124   -1.5087 H       1  LIG1        0.0660
     33 H          -9.6163    4.0030    0.0143 H       1  LIG1        0.0660
     34 H          -8.9196    4.5011   -1.5563 H       1  LIG1        0.0660
@<TRIPOS>BOND
     1    17    14    1
     2    34    31    1
     3    15    14    1
     4    32    31    1
     5    14    13    1
     6    14    16    1
     7    30    31    1
     8    30    21    1
     9    31    33    1
    10    13     4    1
    11    24    20    1
    12     7     3    1
    13    21    20   ar
    14    21    22   ar
    15    20    19   ar
    16     4     3   ar
    17     4     5   ar
    18     3     2   ar
    19     5    19    1
    20     5     6   ar
    21     2     8    1
    22     2     1   ar
    23    19    18   ar
    24    22    25    1
    25    22    23   ar
    26    11     9    1
    27     6     1   ar
    28     1     9    1
    29    23    18   ar
    30    18    26    1
    31    28    26    1
    32    10     9    1
    33     9    12    1
    34    26    29    1
    35    26    27    1
