@<TRIPOS>MOLECULE
mol_data/opt/m06hf/geoms/mol2/6la12ha13ff13ef-.out
 45 48 0 0 0
SMALL
GASTEIGER

@<TRIPOS>ATOM
      1 C          -4.2071   -2.0329    0.1462 C.ar    1  LIG1        0.2150
      2 C          -2.8811   -1.9347    0.6026 C.ar    1  LIG1        0.0000
      3 C          -2.4085   -0.6723    0.8949 C.ar    1  LIG1       -0.0546
      4 C          -3.2374    0.4405    0.7205 C.ar    1  LIG1       -0.0324
      5 C          -4.5246    0.2246    0.2359 C.ar    1  LIG1        0.1116
      6 N          -5.0026   -1.0021   -0.0390 N.ar    1  LIG1       -0.2097
      7 H          -1.4020   -0.5431    1.2712 H       1  LIG1        0.0620
      8 H          -2.2924   -2.8322    0.7176 H       1  LIG1        0.0671
      9 O          -4.6686   -3.2687   -0.1169 O.3     1  LIG1       -0.4796
     10 C          -6.0095   -3.3648   -0.5815 C.3     1  LIG1        0.0804
     11 H          -6.1861   -4.4265   -0.7317 H       1  LIG1        0.0660
     12 H          -6.6964   -2.9576    0.1608 H       1  LIG1        0.0660
     13 H          -6.1267   -2.8152   -1.5153 H       1  LIG1        0.0660
     14 H          -2.9184    1.4384    0.9877 H       1  LIG1        0.0640
     15 C          -5.4268    1.3521    0.0071 C.ar    1  LIG1        0.1745
     16 C          -5.1970    2.6876   -0.1840 C.ar    1  LIG1        0.0732
     17 C          -6.4842    3.3050   -0.3393 C.ar    1  LIG1        0.0072
     18 C          -7.3864    2.2911   -0.2407 C.ar    1  LIG1        0.1574
     19 O          -6.7679    1.1140   -0.0434 O.2     1  LIG1       -0.4498
     20 N          -3.9562    3.3397   -0.2097 N.pl3   1  LIG1       -0.3550
     21 H          -3.2540    2.8251   -0.7300 H       1  LIG1        0.1424
     22 H          -4.0306    4.2853   -0.5619 H       1  LIG1        0.1424
     23 H          -6.7136    4.3441   -0.5050 H       1  LIG1        0.0675
     24 C          -8.8305    2.2529   -0.3114 C.ar    1  LIG1        0.1284
     25 C          -9.7450    3.2707   -0.4610 C.ar    1  LIG1        0.1879
     26 C         -11.0371    2.6940   -0.4299 C.ar    1  LIG1        0.1864
     27 C         -10.8775    1.3319   -0.2571 C.ar    1  LIG1        0.1105
     28 N          -9.5311    1.0805   -0.1959 N.ar    1  LIG1       -0.3447
     29 H          -9.1062    0.2187    0.1120 H       1  LIG1        0.1663
     30 O          -9.4624    4.5872   -0.6355 O.3     1  LIG1       -0.5018
     31 H         -10.3031    5.0600   -0.6956 H       1  LIG1        0.2924
     32 O         -12.1593    3.4372   -0.6269 O.3     1  LIG1       -0.5019
     33 H         -12.8737    3.1215   -0.0513 H       1  LIG1        0.2924
     34 C         -11.8822    0.2832   -0.2035 C.ar    1  LIG1        0.0858
     35 C         -13.1524    0.3084    0.3523 C.ar    1  LIG1        0.0928
     36 C         -13.7380   -0.9686    0.0978 C.ar    1  LIG1        0.1501
     37 C         -12.8204   -1.7222   -0.5848 C.ar    1  LIG1        0.0454
     38 N         -11.6974   -0.9413   -0.7559 N.ar    1  LIG1       -0.3554
     39 H         -10.9021   -1.1835   -1.3251 H       1  LIG1        0.1655
     40 H         -12.8736   -2.7306   -0.9549 H       1  LIG1        0.0845
     41 C         -13.7238    1.4045    1.0667 C.1     1  LIG1       -0.0638
     42 C         -14.1858    2.3488    1.6569 C.1     1  LIG1       -0.1137
     43 H         -14.6040    3.1536    2.2162 H       1  LIG1        0.1232
     44 O         -14.9875   -1.2946    0.5171 O.3     1  LIG1       -0.5040
     45 H         -15.2086   -2.1913    0.2464 H       1  LIG1        0.2923
@<TRIPOS>BOND
     1    13    10    1
     2    39    38    1
     3    40    37    1
     4    38    37   ar
     5    38    34   ar
     6    11    10    1
     7    21    20    1
     8    31    30    1
     9    30    25    1
    10    32    26    1
    11    32    33    1
    12    37    36   ar
    13    10     9    1
    14    10    12    1
    15    22    20    1
    16    23    17    1
    17    25    26   ar
    18    25    24   ar
    19    26    27   ar
    20    17    18   ar
    21    17    16   ar
    22    24    18    1
    23    24    28   ar
    24    27    34    1
    25    27    28   ar
    26    18    19   ar
    27    20    16    1
    28    34    35   ar
    29    28    29    1
    30    16    15   ar
    31     9     1    1
    32    19    15   ar
    33     6     1   ar
    34     6     5   ar
    35    15     5    1
    36    36    35   ar
    37    36    44    1
    38     1     2   ar
    39     5     4   ar
    40    45    44    1
    41    35    41    1
    42     2     8    1
    43     2     3   ar
    44     4     3   ar
    45     4    14    1
    46     3     7    1
    47    41    42    3
    48    42    43    1
