@<TRIPOS>MOLECULE
mol_data/opt/m06hf/geoms/mol2/6la12fh12fi-4de-.out
 49 52 0 0 0
SMALL
GASTEIGER

@<TRIPOS>ATOM
      1 C          -3.9168   -1.9571    0.1089 C.ar    1  LIG1        0.2150
      2 C          -2.5292   -1.7916   -0.0342 C.ar    1  LIG1        0.0000
      3 C          -2.0660   -0.5099   -0.2579 C.ar    1  LIG1       -0.0546
      4 C          -2.9662    0.5560   -0.3324 C.ar    1  LIG1       -0.0323
      5 C          -4.3176    0.2679   -0.1739 C.ar    1  LIG1        0.1135
      6 N          -4.7847   -0.9702    0.0427 N.ar    1  LIG1       -0.2097
      7 H          -1.0055   -0.3296   -0.3769 H       1  LIG1        0.0620
      8 H          -1.8826   -2.6536    0.0328 H       1  LIG1        0.0671
      9 O          -4.3677   -3.2051    0.3273 O.3     1  LIG1       -0.4796
     10 C          -5.7788   -3.3598    0.4465 C.3     1  LIG1        0.0804
     11 H          -5.9370   -4.4220    0.6134 H       1  LIG1        0.0660
     12 H          -6.1550   -2.7735    1.2844 H       1  LIG1        0.0660
     13 H          -6.2732   -3.0306   -0.4670 H       1  LIG1        0.0660
     14 H          -2.6424    1.5720   -0.5064 H       1  LIG1        0.0640
     15 C          -5.3105    1.3433   -0.2361 C.ar    1  LIG1        0.1971
     16 C          -5.1989    2.6875   -0.4342 C.ar    1  LIG1        0.1861
     17 C          -6.5201    3.2336   -0.4067 C.ar    1  LIG1        0.1170
     18 C          -7.3417    2.1700   -0.1720 C.ar    1  LIG1        0.1985
     19 O          -6.6263    1.0382   -0.0675 O.2     1  LIG1       -0.4443
     20 O          -4.0945    3.4382   -0.6307 O.3     1  LIG1       -0.5019
     21 H          -4.3978    4.3607   -0.6302 H       1  LIG1        0.2924
     22 N          -6.7510    4.6204   -0.5934 N.pl3   1  LIG1       -0.3521
     23 H          -7.0871    4.8097   -1.5338 H       1  LIG1        0.1425
     24 H          -7.4451    4.9604    0.0676 H       1  LIG1        0.1425
     25 C          -8.7768    2.1053    0.0193 C.ar    1  LIG1        0.2139
     26 C          -9.6759    3.0283    0.4572 C.ar    1  LIG1        0.1694
     27 C         -10.9709    2.4072    0.4598 C.ar    1  LIG1        0.0376
     28 C         -10.7412    1.1427   -0.0003 C.ar    1  LIG1        0.1436
     29 O          -9.4293    0.9533   -0.2561 O.2     1  LIG1       -0.4475
     30 O          -9.3693    4.2854    0.8828 O.3     1  LIG1       -0.5029
     31 H         -10.1724    4.8122    0.9557 H       1  LIG1        0.2923
     32 C         -12.2310    3.0377    0.9952 C.3     1  LIG1       -0.0326
     33 H         -12.9539    2.2677    1.2628 H       1  LIG1        0.0280
     34 H         -12.6923    3.6948    0.2564 H       1  LIG1        0.0280
     35 H         -11.9939    3.6042    1.8988 H       1  LIG1        0.0280
     36 C         -12.8816    0.0552   -0.7576 C.ar    1  LIG1        0.0625
     37 C         -13.6881   -1.0780   -0.8943 C.ar    1  LIG1       -0.0425
     38 C         -11.6038   -0.0340   -0.1879 C.ar    1  LIG1        0.0361
     39 C         -13.2142   -2.3140   -0.4875 C.ar    1  LIG1       -0.0451
     40 H         -14.6695   -0.9780   -1.3367 H       1  LIG1        0.0631
     41 C         -11.1270   -1.2877    0.1974 C.ar    1  LIG1       -0.0344
     42 C         -11.9238   -2.4219    0.0486 C.ar    1  LIG1        0.0254
     43 H         -10.1339   -1.3732    0.6169 H       1  LIG1        0.0637
     44 H         -13.8225   -3.2013   -0.5915 H       1  LIG1        0.0630
     45 N         -13.7764    2.2957   -1.7178 N.1     1  LIG1       -0.1908
     46 C         -13.3692    1.3147   -1.2817 C.1     1  LIG1        0.0999
     47 C         -11.4214   -3.7119    0.4583 C.1     1  LIG1       -0.0696
     48 C         -11.0084   -4.7871    0.7986 C.1     1  LIG1       -0.1139
     49 H         -10.6393   -5.7397    1.1013 H       1  LIG1        0.1232
@<TRIPOS>BOND
     1    45    46    3
     2    23    22    1
     3    40    37    1
     4    46    36    1
     5    37    36   ar
     6    37    39   ar
     7    36    38   ar
     8    20    21    1
     9    20    16    1
    10    22    17    1
    11    22    24    1
    12    44    39    1
    13    14     4    1
    14    39    42   ar
    15    13    10    1
    16    16    17   ar
    17    16    15   ar
    18    17    18   ar
    19     7     3    1
    20     4     3   ar
    21     4     5   ar
    22     3     2   ar
    23    29    28   ar
    24    29    25   ar
    25    15     5    1
    26    15    19   ar
    27    38    28    1
    28    38    41   ar
    29     5     6   ar
    30    18    19   ar
    31    18    25    1
    32     2     8    1
    33     2     1   ar
    34    28    27   ar
    35    25    26   ar
    36     6     1   ar
    37    42    41   ar
    38    42    47    1
    39     1     9    1
    40    41    43    1
    41    34    32    1
    42     9    10    1
    43    10    11    1
    44    10    12    1
    45    26    27   ar
    46    26    30    1
    47    47    48    3
    48    27    32    1
    49    48    49    1
    50    30    31    1
    51    32    33    1
    52    32    35    1
