@<TRIPOS>MOLECULE
mol_data/opt/m06hf/geoms/mol2/6la6la6la6la.out
 54 57 0 0 0
SMALL
GASTEIGER

@<TRIPOS>ATOM
      1 C          -3.8936   -1.9342   -0.4253 C.ar    1  LIG1        0.2149
      2 C          -3.1759   -2.3078    0.7256 C.ar    1  LIG1        0.0000
      3 C          -3.3209   -1.5163    1.8444 C.ar    1  LIG1       -0.0547
      4 C          -4.1615   -0.3965    1.7973 C.ar    1  LIG1       -0.0353
      5 C          -4.8105   -0.1156    0.6038 C.ar    1  LIG1        0.0799
      6 N          -4.6686   -0.8745   -0.4921 N.ar    1  LIG1       -0.2127
      7 H          -2.7983   -1.7652    2.7589 H       1  LIG1        0.0620
      8 H          -2.5535   -3.1899    0.6986 H       1  LIG1        0.0671
      9 O          -3.7685   -2.7164   -1.5099 O.3     1  LIG1       -0.4796
     10 C          -4.5352   -2.3386   -2.6511 C.3     1  LIG1        0.0804
     11 H          -4.3714   -3.1277   -3.3799 H       1  LIG1        0.0660
     12 H          -5.5891   -2.2559   -2.3862 H       1  LIG1        0.0660
     13 H          -4.1908   -1.3783   -3.0338 H       1  LIG1        0.0660
     14 H          -4.3238    0.2245    2.6665 H       1  LIG1        0.0639
     15 C          -6.9787    1.0111   -0.0971 C.ar    1  LIG1        0.2244
     16 C          -5.6871    1.0834    0.4794 C.ar    1  LIG1        0.0620
     17 C          -5.2796    2.3267    0.9268 C.ar    1  LIG1       -0.0454
     18 C          -6.1183    3.4384    0.7977 C.ar    1  LIG1       -0.0347
     19 C          -7.3522    3.2525    0.1929 C.ar    1  LIG1        0.0799
     20 N          -7.7633    2.0559   -0.2459 N.ar    1  LIG1       -0.2122
     21 H          -4.2971    2.4312    1.3710 H       1  LIG1        0.0626
     22 O          -7.4321   -0.1856   -0.4870 O.3     1  LIG1       -0.4792
     23 C          -8.7530   -0.2187   -1.0233 C.3     1  LIG1        0.0804
     24 H          -8.9530   -1.2690   -1.2170 H       1  LIG1        0.0660
     25 H          -9.4624    0.1945   -0.3065 H       1  LIG1        0.0660
     26 H          -8.7994    0.3633   -1.9431 H       1  LIG1        0.0660
     27 H          -5.8255    4.4115    1.1649 H       1  LIG1        0.0639
     28 C          -9.6503    4.3279    0.3201 C.ar    1  LIG1        0.2244
     29 C          -8.2784    4.3998   -0.0228 C.ar    1  LIG1        0.0620
     30 C          -7.8391    5.5916   -0.5686 C.ar    1  LIG1       -0.0454
     31 C          -8.7298    6.6507   -0.7696 C.ar    1  LIG1       -0.0347
     32 C         -10.0581    6.4560   -0.4222 C.ar    1  LIG1        0.0799
     33 N         -10.4998    5.3098    0.1117 N.ar    1  LIG1       -0.2122
     34 H          -6.7974    5.6907   -0.8493 H       1  LIG1        0.0626
     35 O         -10.0975    3.2126    0.9082 O.3     1  LIG1       -0.4792
     36 C         -11.4747    3.1979    1.2769 C.3     1  LIG1        0.0804
     37 H         -11.6188    2.2544    1.7959 H       1  LIG1        0.0660
     38 H         -11.7020    4.0458    1.9230 H       1  LIG1        0.0660
     39 H         -12.1016    3.2537    0.3871 H       1  LIG1        0.0660
     40 H          -8.3999    7.5970   -1.1739 H       1  LIG1        0.0639
     41 C         -11.9915    7.9231    0.3325 C.ar    1  LIG1        0.2239
     42 C         -11.0715    7.5221   -0.6652 C.ar    1  LIG1        0.0619
     43 C         -11.1535    8.1671   -1.8861 C.ar    1  LIG1       -0.0460
     44 C         -12.1193    9.1561   -2.0994 C.ar    1  LIG1       -0.0427
     45 C         -12.9730    9.4525   -1.0540 C.ar    1  LIG1        0.0314
     46 N         -12.9071    8.8512    0.1402 N.ar    1  LIG1       -0.2208
     47 H         -10.4739    7.8785   -2.6789 H       1  LIG1        0.0626
     48 H         -13.7479   10.2017   -1.1621 H       1  LIG1        0.0831
     49 O         -11.9038    7.3443    1.5362 O.3     1  LIG1       -0.4792
     50 C         -12.8348    7.7742    2.5241 C.3     1  LIG1        0.0804
     51 H         -12.5977    7.1921    3.4104 H       1  LIG1        0.0660
     52 H         -12.7189    8.8404    2.7162 H       1  LIG1        0.0660
     53 H         -13.8540    7.5803    2.1918 H       1  LIG1        0.0660
     54 H         -12.2067    9.6652   -3.0479 H       1  LIG1        0.0633
@<TRIPOS>BOND
     1    11    10    1
     2    54    44    1
     3    13    10    1
     4    47    43    1
     5    10    12    1
     6    10     9    1
     7    44    43   ar
     8    44    45   ar
     9    26    23    1
    10    43    42   ar
    11     9     1    1
    12    24    23    1
    13    40    31    1
    14    48    45    1
    15    45    46   ar
    16    23    22    1
    17    23    25    1
    18    34    30    1
    19    31    30   ar
    20    31    32   ar
    21    42    32    1
    22    42    41   ar
    23    30    29   ar
    24     6     1   ar
    25     6     5   ar
    26    22    15    1
    27     1     2   ar
    28    32    33   ar
    29    20    15   ar
    30    20    19   ar
    31    15    16   ar
    32    29    19    1
    33    29    28   ar
    34    33    28   ar
    35    46    41   ar
    36    19    18   ar
    37    28    35    1
    38    41    49    1
    39    39    36    1
    40    16     5    1
    41    16    17   ar
    42     5     4   ar
    43     8     2    1
    44     2     3   ar
    45    18    17   ar
    46    18    27    1
    47    35    36    1
    48    17    21    1
    49    36    37    1
    50    36    38    1
    51    49    50    1
    52     4     3   ar
    53     4    14    1
    54     3     7    1
    55    53    50    1
    56    50    52    1
    57    50    51    1
