@<TRIPOS>MOLECULE
mol_data/opt/m06hf/geoms/mol2/6la6fi-4de12ld-13la12ah12il13ee.out
 100 107 0 0 0
SMALL
GASTEIGER

@<TRIPOS>ATOM
      1 C          -5.6259   -2.6869   -1.2443 C.ar    1  LIG1        0.2149
      2 C          -4.3996   -3.1497   -0.7427 C.ar    1  LIG1        0.0000
      3 C          -3.6185   -2.2432   -0.0564 C.ar    1  LIG1       -0.0547
      4 C          -4.0558   -0.9271    0.1326 C.ar    1  LIG1       -0.0353
      5 C          -5.2934   -0.5618   -0.3785 C.ar    1  LIG1        0.0799
      6 N          -6.0427   -1.4480   -1.0669 N.ar    1  LIG1       -0.2127
      7 H          -2.6578   -2.5500    0.3361 H       1  LIG1        0.0620
      8 H          -4.1099   -4.1750   -0.9158 H       1  LIG1        0.0671
      9 O          -6.3914   -3.5446   -1.9224 O.3     1  LIG1       -0.4796
     10 C          -7.6444   -3.0626   -2.4138 C.3     1  LIG1        0.0804
     11 H          -8.1138   -3.9211   -2.8837 H       1  LIG1        0.0660
     12 H          -8.2561   -2.6881   -1.5915 H       1  LIG1        0.0660
     13 H          -7.4796   -2.2720   -3.1479 H       1  LIG1        0.0660
     14 H          -3.4317   -0.2148    0.6492 H       1  LIG1        0.0639
     15 C          -7.0518    1.1813   -0.9226 C.ar    1  LIG1        0.2223
     16 C          -5.8866    0.7925   -0.2074 C.ar    1  LIG1        0.0621
     17 C          -5.3708    1.7217    0.6848 C.ar    1  LIG1       -0.0425
     18 C          -5.9366    2.9869    0.8587 C.ar    1  LIG1       -0.0236
     19 C          -7.0575    3.2569    0.0721 C.ar    1  LIG1        0.0790
     20 N          -7.5924    2.3749   -0.7750 N.ar    1  LIG1       -0.2122
     21 H          -4.5201    1.4569    1.3018 H       1  LIG1        0.0629
     22 O          -7.6770    0.3675   -1.7675 O.3     1  LIG1       -0.4919
     23 H          -7.2581   -0.5325   -1.6580 H       1  LIG1        0.2937
     24 C          -5.3784    3.9364    1.9015 C.3     1  LIG1       -0.0377
     25 H          -6.1349    4.6581    2.2103 H       1  LIG1        0.0278
     26 H          -4.5197    4.4811    1.5081 H       1  LIG1        0.0278
     27 H          -5.0692    3.3681    2.7796 H       1  LIG1        0.0278
     28 C          -7.3618    5.8111   -0.0177 C.ar    1  LIG1        0.0617
     29 C          -8.2065    6.9205   -0.0093 C.ar    1  LIG1       -0.0317
     30 C          -7.8614    4.5166    0.1649 C.ar    1  LIG1        0.0193
     31 C          -9.5806    6.7614    0.1790 C.ar    1  LIG1        0.0376
     32 H          -7.8033    7.9094   -0.1799 H       1  LIG1        0.0638
     33 C          -9.2290    4.3687    0.3614 C.ar    1  LIG1       -0.0352
     34 C         -10.0953    5.4612    0.3743 C.ar    1  LIG1        0.0361
     35 H          -9.6337    3.3742    0.4989 H       1  LIG1        0.0637
     36 N          -4.8443    6.2010   -0.5273 N.1     1  LIG1       -0.1908
     37 C          -5.9549    6.0208   -0.3002 C.1     1  LIG1        0.0998
     38 C         -11.4884    5.1366    0.5952 C.1     1  LIG1       -0.0689
     39 C         -12.5963    4.7121    0.8013 C.1     1  LIG1       -0.1139
     40 H         -13.5792    4.3303    0.9768 H       1  LIG1        0.1232
     41 C         -10.4520    7.9313    0.1253 C.ar    1  LIG1        0.1797
     42 C         -10.2469    9.2796    0.1719 C.ar    1  LIG1        0.1838
     43 C         -11.5499    9.9031    0.0323 C.ar    1  LIG1        0.1412
     44 C         -12.4421    8.8649   -0.0953 C.ar    1  LIG1        0.1764
     45 O         -11.7775    7.7076   -0.0496 O.2     1  LIG1       -0.4481
     46 O          -9.0365    9.8567    0.2866 O.3     1  LIG1       -0.4901
     47 C          -8.9547   11.0751    1.0342 C.3     1  LIG1        0.0790
     48 H          -7.9002   11.2075    1.2593 H       1  LIG1        0.0660
     49 H          -9.3215   11.9100    0.4405 H       1  LIG1        0.0660
     50 H          -9.5302   10.9859    1.9567 H       1  LIG1        0.0660
     51 N         -12.0274   12.4364   -0.0175 N.1     1  LIG1       -0.1906
     52 C         -11.8427   11.3032    0.0013 C.1     1  LIG1        0.1068
     53 C         -13.8599    8.6765   -0.2686 C.ar    1  LIG1        0.1262
     54 C         -14.9450    9.5252   -0.4385 C.ar    1  LIG1        0.1490
     55 C         -16.0999    8.7215   -0.6011 C.ar    1  LIG1        0.0092
     56 C         -15.6666    7.4020   -0.5241 C.ar    1  LIG1        0.0863
     57 N         -14.3334    7.3943   -0.3236 N.ar    1  LIG1       -0.3464
     58 H         -13.7504    6.5672   -0.2286 H       1  LIG1        0.1662
     59 O         -14.8131   10.8638   -0.4292 O.3     1  LIG1       -0.4929
     60 C         -15.9945   11.6186   -0.6288 C.3     1  LIG1        0.0789
     61 H         -15.6880   12.6600   -0.5938 H       1  LIG1        0.0660
     62 H         -16.4324   11.3876   -1.6028 H       1  LIG1        0.0660
     63 H         -16.7162   11.4122    0.1653 H       1  LIG1        0.0660
     64 H         -17.1159    9.0465   -0.7423 H       1  LIG1        0.0677
     65 C         -16.3652    6.1299   -0.6446 C.ar    1  LIG1        0.1539
     66 C         -17.5780    5.7538   -1.1290 C.ar    1  LIG1        0.0071
     67 C         -17.6083    4.3162   -1.0497 C.ar    1  LIG1        0.0747
     68 C         -16.4157    3.9416   -0.5012 C.ar    1  LIG1        0.1915
     69 O         -15.6585    5.0500   -0.2538 O.2     1  LIG1       -0.4483
     70 H         -18.3424    6.3992   -1.5278 H       1  LIG1        0.0675
     71 N         -18.6627    3.4893   -1.4443 N.pl3   1  LIG1       -0.3549
     72 H         -19.2132    3.8858   -2.1953 H       1  LIG1        0.1424
     73 H         -18.3557    2.5522   -1.6792 H       1  LIG1        0.1424
     74 C         -15.8498    2.6503   -0.1580 C.ar    1  LIG1        0.1790
     75 C         -16.3985    1.4937    0.3015 C.ar    1  LIG1        0.0408
     76 C         -15.2954    0.5727    0.4123 C.ar    1  LIG1        0.1707
     77 C         -14.1627    1.2466    0.0569 C.ar    1  LIG1        0.1947
     78 O         -14.5044    2.5115   -0.3147 O.2     1  LIG1       -0.4461
     79 C         -17.8158    1.1840    0.7049 C.3     1  LIG1       -0.0325
     80 H         -17.8094    0.7431    1.7013 H       1  LIG1        0.0280
     81 H         -18.2575    0.4566    0.0204 H       1  LIG1        0.0280
     82 H         -18.4214    2.0894    0.7071 H       1  LIG1        0.0280
     83 O         -15.4475   -0.7108    0.8152 O.3     1  LIG1       -0.4910
     84 C         -15.0777   -1.6822   -0.1643 C.3     1  LIG1        0.0790
     85 H         -15.2331   -2.6518    0.3012 H       1  LIG1        0.0660
     86 H         -15.7132   -1.5742   -1.0463 H       1  LIG1        0.0660
     87 H         -14.0284   -1.5697   -0.4375 H       1  LIG1        0.0660
     88 C         -12.7466    0.9184   -0.0067 C.ar    1  LIG1        0.1026
     89 C         -11.9950   -0.0505    0.6377 C.ar    1  LIG1        0.0684
     90 C         -10.6471    0.0890    0.1643 C.ar    1  LIG1        0.0580
     91 C         -10.6341    1.1380   -0.7312 C.ar    1  LIG1        0.0189
     92 N         -11.9006    1.6235   -0.8161 N.ar    1  LIG1       -0.3560
     93 H         -12.1868    2.4279   -1.3557 H       1  LIG1        0.1655
     94 H          -9.8037    1.5567   -1.2800 H       1  LIG1        0.0820
     95 C         -12.4515   -0.9764    1.6264 C.1     1  LIG1       -0.0662
     96 C         -12.8322   -1.7501    2.4634 C.1     1  LIG1       -0.1138
     97 H         -13.1732   -2.4232    3.2147 H       1  LIG1        0.1232
     98 C          -9.5250   -0.6990    0.5797 C.1     1  LIG1       -0.0669
     99 C          -8.5932   -1.3620    0.9537 C.1     1  LIG1       -0.1138
    100 H          -7.7676   -1.9395    1.3005 H       1  LIG1        0.1232
@<TRIPOS>BOND
     1    13    10    1
     2    11    10    1
     3    10     9    1
     4    10    12    1
     5    72    71    1
     6     9     1    1
     7    22    23    1
     8    22    15    1
     9    73    71    1
    10    62    60    1
    11    70    66    1
    12    71    67    1
    13    93    92    1
    14    94    91    1
    15     1     6   ar
    16     1     2   ar
    17    66    67   ar
    18    66    65   ar
    19     6     5   ar
    20    67    68   ar
    21    86    84    1
    22    15    20   ar
    23    15    16   ar
    24     8     2    1
    25    92    91   ar
    26    92    88   ar
    27    20    19   ar
    28     2     3   ar
    29    64    55    1
    30    91    90   ar
    31    65    56    1
    32    65    69   ar
    33    60    61    1
    34    60    59    1
    35    60    63    1
    36    55    56   ar
    37    55    54   ar
    38    36    37    3
    39    56    57   ar
    40    68    69   ar
    41    68    74    1
    42    54    59    1
    43    54    53   ar
    44    87    84    1
    45     5    16    1
    46     5     4   ar
    47    57    53   ar
    48    57    58    1
    49    78    74   ar
    50    78    77   ar
    51    37    28    1
    52    53    44    1
    53    16    17   ar
    54    32    29    1
    55    84    85    1
    56    84    83    1
    57    74    75   ar
    58    44    45   ar
    59    44    43   ar
    60     3     4   ar
    61     3     7    1
    62    45    41   ar
    63    28    29   ar
    64    28    30   ar
    65    51    52    3
    66    29    31   ar
    67    88    77    1
    68    88    89   ar
    69    52    43    1
    70    81    79    1
    71    43    42   ar
    72    77    76   ar
    73    19    30    1
    74    19    18   ar
    75    41    42   ar
    76    41    31    1
    77     4    14    1
    78    90    98    1
    79    90    89   ar
    80    30    33   ar
    81    42    46    1
    82    31    34   ar
    83    46    47    1
    84    75    76   ar
    85    75    79    1
    86    33    34   ar
    87    33    35    1
    88    34    38    1
    89    76    83    1
    90    49    47    1
    91    98    99    3
    92    38    39    3
    93    89    95    1
    94    17    18   ar
    95    17    21    1
    96    79    82    1
    97    79    80    1
    98    39    40    1
    99    18    24    1
   100    99   100    1
   101    47    48    1
   102    47    50    1
   103    26    24    1
   104    95    96    3
   105    24    25    1
   106    24    27    1
   107    96    97    1
