@<TRIPOS>MOLECULE
mol_data/opt/m06hf/geoms/mol2/6ld13ia6ad-13he.out
 49 52 0 0 0
SMALL
GASTEIGER

@<TRIPOS>ATOM
      1 C          -4.7336   -2.0081    0.7563 C.ar    1  LIG1        0.2151
      2 C          -3.4473   -2.3691    0.3028 C.ar    1  LIG1        0.0012
      3 C          -2.7407   -1.4214   -0.3917 C.ar    1  LIG1       -0.0372
      4 C          -3.2990   -0.1439   -0.5947 C.ar    1  LIG1        0.0794
      5 C          -4.5505    0.1382   -0.0473 C.ar    1  LIG1        0.1085
      6 N          -5.2568   -0.8119    0.5918 N.ar    1  LIG1       -0.2101
      7 H          -1.7656   -1.6417   -0.8050 H       1  LIG1        0.0633
      8 H          -3.0768   -3.3651    0.4914 H       1  LIG1        0.0671
      9 O          -5.4340   -2.9469    1.3935 O.3     1  LIG1       -0.4796
     10 C          -6.7244   -2.5879    1.8853 C.3     1  LIG1        0.0804
     11 H          -7.0781   -3.4635    2.4208 H       1  LIG1        0.0660
     12 H          -6.6476   -1.7273    2.5485 H       1  LIG1        0.0660
     13 H          -7.3894   -2.3503    1.0550 H       1  LIG1        0.0660
     14 N          -2.0302    1.4679   -2.1739 N.1     1  LIG1       -0.1908
     15 C          -2.6086    0.7844   -1.4549 C.1     1  LIG1        0.1014
     16 C          -5.2199    1.4425   -0.1475 C.ar    1  LIG1        0.0697
     17 C          -4.7814    2.7585   -0.0937 C.ar    1  LIG1       -0.0231
     18 C          -5.9489    3.5638   -0.1581 C.ar    1  LIG1       -0.0328
     19 C          -7.0461    2.7269   -0.2357 C.ar    1  LIG1        0.0487
     20 N          -6.5852    1.4489   -0.2238 N.ar    1  LIG1       -0.3527
     21 H          -7.1381    0.6076   -0.1393 H       1  LIG1        0.1660
     22 C          -3.3785    3.2851    0.0910 C.3     1  LIG1       -0.0376
     23 H          -3.4179    4.1805    0.7115 H       1  LIG1        0.0278
     24 H          -2.9208    3.5333   -0.8667 H       1  LIG1        0.0278
     25 H          -2.7482    2.5476    0.5886 H       1  LIG1        0.0278
     26 H          -5.9765    4.6421   -0.1682 H       1  LIG1        0.0642
     27 C          -9.3287    2.2779   -1.1664 C.ar    1  LIG1        0.0375
     28 C          -8.4818    3.0304   -0.3388 C.ar    1  LIG1        0.0177
     29 C          -9.0573    4.1009    0.3320 C.ar    1  LIG1       -0.0316
     30 C         -10.4238    4.3426    0.1917 C.ar    1  LIG1        0.0798
     31 C         -11.2170    3.4641   -0.5698 C.ar    1  LIG1        0.1062
     32 N         -10.6310    2.4745   -1.2647 N.ar    1  LIG1       -0.2515
     33 H          -8.4549    4.7534    0.9511 H       1  LIG1        0.0638
     34 H          -8.9154    1.4870   -1.7833 H       1  LIG1        0.0836
     35 N         -11.3480    6.5500    1.1816 N.1     1  LIG1       -0.1908
     36 C         -10.9609    5.5553    0.7570 C.1     1  LIG1        0.1014
     37 C         -12.6654    3.5347   -0.7127 C.ar    1  LIG1        0.0884
     38 C         -13.7245    3.9614    0.0860 C.ar    1  LIG1        0.0673
     39 C         -14.9220    3.5817   -0.5991 C.ar    1  LIG1        0.0632
     40 C         -14.5514    2.9322   -1.7636 C.ar    1  LIG1        0.0195
     41 N         -13.2128    2.9131   -1.8185 N.ar    1  LIG1       -0.3568
     42 H         -12.6291    2.4629   -2.5087 H       1  LIG1        0.1655
     43 H         -15.1677    2.5053   -2.5355 H       1  LIG1        0.0820
     44 N         -13.7195    4.5100    1.3610 N.pl3   1  LIG1       -0.3553
     45 H         -13.1461    5.3331    1.4913 H       1  LIG1        0.1424
     46 H         -14.6619    4.6515    1.7040 H       1  LIG1        0.1424
     47 C         -16.2446    3.8334   -0.1177 C.1     1  LIG1       -0.0663
     48 C         -17.3390    4.0651    0.3249 C.1     1  LIG1       -0.1138
     49 H         -18.3128    4.2658    0.7063 H       1  LIG1        0.1232
@<TRIPOS>BOND
     1    43    40    1
     2    42    41    1
     3    14    15    3
     4    41    40   ar
     5    41    37   ar
     6    34    27    1
     7    40    39   ar
     8    15     4    1
     9    32    27   ar
    10    32    31   ar
    11    27    28   ar
    12    24    22    1
    13     7     3    1
    14    37    31    1
    15    37    38   ar
    16    39    47    1
    17    39    38   ar
    18     4     3   ar
    19     4     5   ar
    20    31    30   ar
    21     3     2   ar
    22    28    19    1
    23    28    29   ar
    24    19    20   ar
    25    19    18   ar
    26    20    16   ar
    27    20    21    1
    28    26    18    1
    29    18    17   ar
    30    16    17   ar
    31    16     5    1
    32    47    48    3
    33    17    22    1
    34     5     6   ar
    35    38    44    1
    36    22    25    1
    37    22    23    1
    38    30    29   ar
    39    30    36    1
    40     2     8    1
    41     2     1   ar
    42    48    49    1
    43    29    33    1
    44     6     1   ar
    45     1     9    1
    46    36    35    3
    47    13    10    1
    48    44    45    1
    49    44    46    1
    50     9    10    1
    51    10    11    1
    52    10    12    1
