@<TRIPOS>MOLECULE
mol_data/opt/m06hf/geoms/mol2/6ld12fd13dh-6df.out
 47 50 0 0 0
SMALL
GASTEIGER

@<TRIPOS>ATOM
      1 C          -4.3705   -1.9692    0.0026 C.ar    1  LIG1        0.2151
      2 C          -3.0278   -1.9961    0.4493 C.ar    1  LIG1        0.0012
      3 C          -2.4562   -0.8045    0.8107 C.ar    1  LIG1       -0.0371
      4 C          -3.2149    0.3787    0.7120 C.ar    1  LIG1        0.0811
      5 C          -4.5160    0.3024    0.2185 C.ar    1  LIG1        0.1308
      6 N          -5.0786   -0.8632   -0.1130 N.ar    1  LIG1       -0.2084
      7 H          -1.4415   -0.7572    1.1820 H       1  LIG1        0.0633
      8 H          -2.5069   -2.9399    0.5017 H       1  LIG1        0.0671
      9 O          -4.9232   -3.1294   -0.3219 O.3     1  LIG1       -0.4796
     10 C          -6.2828   -3.1037   -0.7784 C.3     1  LIG1        0.0804
     11 H          -6.5312   -4.1397   -0.9853 H       1  LIG1        0.0660
     12 H          -6.9275   -2.6932   -0.0038 H       1  LIG1        0.0660
     13 H          -6.3679   -2.4922   -1.6740 H       1  LIG1        0.0660
     14 N          -2.2806    2.6503    1.5262 N.1     1  LIG1       -0.1908
     15 C          -2.6809    1.6339    1.1661 C.1     1  LIG1        0.1014
     16 C          -5.3607    1.4874    0.0118 C.ar    1  LIG1        0.1977
     17 C          -5.1368    2.7651   -0.4240 C.ar    1  LIG1        0.1827
     18 C          -6.4364    3.3721   -0.5631 C.ar    1  LIG1        0.1409
     19 C          -7.3395    2.4174   -0.1903 C.ar    1  LIG1        0.1742
     20 O          -6.6984    1.2953    0.1545 O.2     1  LIG1       -0.4466
     21 O          -4.0025    3.3806   -0.7964 O.3     1  LIG1       -0.5023
     22 H          -3.3503    3.4037   -0.0785 H       1  LIG1        0.2923
     23 N          -6.8643    5.7065   -1.5686 N.1     1  LIG1       -0.1906
     24 C          -6.6851    4.6723   -1.1061 C.1     1  LIG1        0.1067
     25 C          -8.7892    2.3530   -0.1172 C.ar    1  LIG1        0.1034
     26 C          -9.7681    3.3304    0.0003 C.ar    1  LIG1        0.1012
     27 C         -11.0250    2.6706    0.0173 C.ar    1  LIG1        0.0686
     28 C         -10.7715    1.3074   -0.0736 C.ar    1  LIG1        0.0721
     29 N          -9.4093    1.1568   -0.1675 N.ar    1  LIG1       -0.3491
     30 H          -8.9101    0.2822   -0.2824 H       1  LIG1        0.1661
     31 N          -9.6186    5.8794    0.3368 N.1     1  LIG1       -0.1907
     32 C          -9.6256    4.7433    0.1702 C.1     1  LIG1        0.1033
     33 N         -12.2722    3.3001    0.1486 N.pl3   1  LIG1       -0.3553
     34 H         -12.1701    4.2992    0.2969 H       1  LIG1        0.1424
     35 H         -12.8806    3.1295   -0.6467 H       1  LIG1        0.1424
     36 C         -11.4905   -1.1071   -0.4689 C.ar    1  LIG1        0.1494
     37 C         -11.7380    0.2000   -0.0148 C.ar    1  LIG1        0.0394
     38 C         -12.9976    0.4321    0.5463 C.ar    1  LIG1       -0.0068
     39 C         -13.9206   -0.6013    0.6027 C.ar    1  LIG1        0.1356
     40 C         -13.5643   -1.8631    0.1080 C.ar    1  LIG1        0.0705
     41 N         -12.3722   -2.1002   -0.4052 N.ar    1  LIG1       -0.2403
     42 H         -13.2522    1.4060    0.9461 H       1  LIG1        0.0662
     43 H         -14.2634   -2.6923    0.1362 H       1  LIG1        0.0867
     44 N          -9.1734   -1.7542   -1.4651 N.1     1  LIG1       -0.1893
     45 C         -10.2048   -1.4782   -1.0426 C.1     1  LIG1        0.1198
     46 O         -15.1286   -0.3462    1.1436 O.3     1  LIG1       -0.5052
     47 H         -15.6867   -1.1322    1.1578 H       1  LIG1        0.2922
@<TRIPOS>BOND
     1    13    10    1
     2    23    24    3
     3    44    45    3
     4    24    18    1
     5    45    36    1
     6    11    10    1
     7    21    17    1
     8    21    22    1
     9    10     9    1
    10    10    12    1
    11    35    33    1
    12    18    17   ar
    13    18    19   ar
    14    36    41   ar
    15    36    37   ar
    16    17    16   ar
    17    41    40   ar
    18     9     1    1
    19    30    29    1
    20    19    25    1
    21    19    20   ar
    22    29    25   ar
    23    29    28   ar
    24    25    26   ar
    25     6     1   ar
    26     6     5   ar
    27    28    37    1
    28    28    27   ar
    29    37    38   ar
    30    26    27   ar
    31    26    32    1
    32     1     2   ar
    33    16    20   ar
    34    16     5    1
    35    27    33    1
    36    40    43    1
    37    40    39   ar
    38    33    34    1
    39    32    31    3
    40     5     4   ar
    41     2     8    1
    42     2     3   ar
    43    38    39   ar
    44    38    42    1
    45    39    46    1
    46     4     3   ar
    47     4    15    1
    48     3     7    1
    49    46    47    1
    50    15    14    3
