@<TRIPOS>MOLECULE
mol_data/opt/m06hf/geoms/mol2/6ld12ae12ee-13fh.out
 47 50 0 0 0
SMALL
GASTEIGER

@<TRIPOS>ATOM
      1 C          -4.2670   -1.9232    0.7987 C.ar    1  LIG1        0.2151
      2 C          -2.8752   -1.9688    0.5769 C.ar    1  LIG1        0.0012
      3 C          -2.2851   -0.8333    0.0828 C.ar    1  LIG1       -0.0371
      4 C          -3.0705    0.3051   -0.1754 C.ar    1  LIG1        0.0809
      5 C          -4.4418    0.2476    0.0835 C.ar    1  LIG1        0.1271
      6 N          -5.0115   -0.8641    0.5620 N.ar    1  LIG1       -0.2085
      7 H          -1.2224   -0.7940   -0.1152 H       1  LIG1        0.0633
      8 H          -2.3290   -2.8735    0.7963 H       1  LIG1        0.0671
      9 O          -4.8427   -3.0255    1.2768 O.3     1  LIG1       -0.4796
     10 C          -6.2522   -2.9755    1.5114 C.3     1  LIG1        0.0804
     11 H          -6.5081   -3.9553    1.9027 H       1  LIG1        0.0660
     12 H          -6.4851   -2.1917    2.2305 H       1  LIG1        0.0660
     13 H          -6.7779   -2.7748    0.5790 H       1  LIG1        0.0660
     14 N          -1.8909    2.4072   -1.1200 N.1     1  LIG1       -0.1908
     15 C          -2.4291    1.4829   -0.7023 C.1     1  LIG1        0.1014
     16 C          -5.3564    1.3811   -0.1385 C.ar    1  LIG1        0.1565
     17 C          -5.1900    2.6843   -0.5035 C.ar    1  LIG1        0.0019
     18 C          -6.5047    3.2582   -0.5314 C.ar    1  LIG1        0.0741
     19 C          -7.3570    2.2500   -0.1633 C.ar    1  LIG1        0.1872
     20 O          -6.6681    1.1228    0.0667 O.2     1  LIG1       -0.4488
     21 H          -4.2731    3.1946   -0.7405 H       1  LIG1        0.0668
     22 C          -6.8588    4.5825   -0.9383 C.1     1  LIG1       -0.0657
     23 C          -7.1508    5.6899   -1.2986 C.1     1  LIG1       -0.1138
     24 H          -7.4239    6.6685   -1.6187 H       1  LIG1        0.1232
     25 C          -8.7986    2.1965   -0.0027 C.ar    1  LIG1        0.1884
     26 C          -9.7104    3.0825    0.4848 C.ar    1  LIG1        0.0895
     27 C         -11.0041    2.4417    0.3535 C.ar    1  LIG1        0.0880
     28 C         -10.7538    1.2068   -0.1803 C.ar    1  LIG1        0.1721
     29 O          -9.4252    1.0627   -0.3958 O.2     1  LIG1       -0.4476
     30 C          -9.4544    4.3608    1.0690 C.1     1  LIG1       -0.0645
     31 C          -9.2405    5.4263    1.5795 C.1     1  LIG1       -0.1138
     32 H          -9.0408    6.3691    2.0336 H       1  LIG1        0.1232
     33 C         -12.2543    3.0297    0.7108 C.1     1  LIG1       -0.0646
     34 C         -13.2898    3.5576    1.0100 C.1     1  LIG1       -0.1138
     35 H         -14.2155    4.0131    1.2727 H       1  LIG1        0.1232
     36 C         -11.5521    0.0652   -0.5698 C.ar    1  LIG1        0.1272
     37 C         -12.8738   -0.2914   -0.3931 C.ar    1  LIG1        0.1659
     38 C         -13.0673   -1.5581   -1.0043 C.ar    1  LIG1        0.0849
     39 C         -11.8535   -1.9447   -1.5352 C.ar    1  LIG1        0.0268
     40 N         -10.9566   -0.9679   -1.2672 N.ar    1  LIG1       -0.3536
     41 H          -9.9845   -0.9591   -1.5332 H       1  LIG1        0.1656
     42 H         -11.5775   -2.8345   -2.0751 H       1  LIG1        0.0827
     43 O         -13.8571    0.3719    0.2445 O.3     1  LIG1       -0.5030
     44 H         -14.6415   -0.1946    0.1586 H       1  LIG1        0.2923
     45 N         -14.3537   -2.1702   -0.9708 N.pl3   1  LIG1       -0.3540
     46 H         -14.7436   -2.3077   -1.8968 H       1  LIG1        0.1425
     47 H         -14.3523   -3.0547   -0.4751 H       1  LIG1        0.1425
@<TRIPOS>BOND
     1    42    39    1
     2    46    45    1
     3    24    23    1
     4    39    40   ar
     5    39    38   ar
     6    41    40    1
     7    23    22    3
     8    40    36   ar
     9    14    15    3
    10    38    45    1
    11    38    37   ar
    12    45    47    1
    13    22    18    1
    14    21    17    1
    15    15     4    1
    16    36    37   ar
    17    36    28    1
    18    18    17   ar
    19    18    19   ar
    20    17    16   ar
    21    29    28   ar
    22    29    25   ar
    23    37    43    1
    24    28    27   ar
    25     4     3   ar
    26     4     5   ar
    27    19    25    1
    28    19    20   ar
    29    16    20   ar
    30    16     5    1
    31     7     3    1
    32    25    26   ar
    33     3     2   ar
    34     5     6   ar
    35    44    43    1
    36    27    26   ar
    37    27    33    1
    38    26    30    1
    39     6     1   ar
    40     2     8    1
    41     2     1   ar
    42    13    10    1
    43    33    34    3
    44     1     9    1
    45    34    35    1
    46    30    31    3
    47     9    10    1
    48    10    11    1
    49    10    12    1
    50    31    32    1
