@<TRIPOS>MOLECULE
mol_data/opt/m06hf/geoms/mol2/6ld6ld6ld6ld.out
 58 61 0 0 0
SMALL
GASTEIGER

@<TRIPOS>ATOM
      1 C          -4.4067   -2.1768   -0.4193 C.ar    1  LIG1        0.2150
      2 C          -3.1072   -2.2796    0.1211 C.ar    1  LIG1        0.0012
      3 C          -2.5595   -1.1472    0.6691 C.ar    1  LIG1       -0.0372
      4 C          -3.3070    0.0460    0.6705 C.ar    1  LIG1        0.0781
      5 C          -4.5776    0.0424    0.0998 C.ar    1  LIG1        0.0972
      6 N          -5.1051   -1.0596   -0.4383 N.ar    1  LIG1       -0.2114
      7 H          -1.5709   -1.1561    1.1079 H       1  LIG1        0.0633
      8 H          -2.5950   -3.2295    0.0927 H       1  LIG1        0.0671
      9 O          -4.9405   -3.2825   -0.9348 O.3     1  LIG1       -0.4796
     10 C          -6.2703   -3.1822   -1.4501 C.3     1  LIG1        0.0804
     11 H          -6.5287   -4.1892   -1.7627 H       1  LIG1        0.0660
     12 H          -6.9441   -2.8226   -0.6732 H       1  LIG1        0.0660
     13 H          -6.2915   -2.4933   -2.2934 H       1  LIG1        0.0660
     14 N          -2.3130    2.1792    1.7556 N.1     1  LIG1       -0.1908
     15 C          -2.7622    1.2378    1.2766 C.1     1  LIG1        0.1013
     16 C          -6.7442    1.2785    0.5274 C.ar    1  LIG1        0.2245
     17 C          -5.4122    1.2761    0.0433 C.ar    1  LIG1        0.0645
     18 C          -4.9382    2.4540   -0.4907 C.ar    1  LIG1       -0.0279
     19 C          -5.7768    3.5779   -0.5508 C.ar    1  LIG1        0.0787
     20 C          -7.0696    3.4759   -0.0402 C.ar    1  LIG1        0.0973
     21 N          -7.5228    2.3411    0.4928 N.ar    1  LIG1       -0.2109
     22 H          -3.9303    2.5182   -0.8812 H       1  LIG1        0.0639
     23 O          -7.2168    0.1588    1.0626 O.3     1  LIG1       -0.4792
     24 C          -8.5642    0.1888    1.5405 C.3     1  LIG1        0.0804
     25 H          -8.7669   -0.8252    1.8715 H       1  LIG1        0.0660
     26 H          -8.6501    0.8947    2.3652 H       1  LIG1        0.0660
     27 H          -9.2365    0.4876    0.7374 H       1  LIG1        0.0660
     28 N          -4.9188    5.7536   -1.6670 N.1     1  LIG1       -0.1908
     29 C          -5.3053    4.7945   -1.1689 C.1     1  LIG1        0.1013
     30 C          -9.3226    4.5082   -0.5495 C.ar    1  LIG1        0.2245
     31 C          -8.0060    4.6344   -0.0407 C.ar    1  LIG1        0.0645
     32 C          -7.6448    5.8636    0.4673 C.ar    1  LIG1       -0.0279
     33 C          -8.5777    6.9119    0.4774 C.ar    1  LIG1        0.0787
     34 C          -9.8478    6.6836   -0.0499 C.ar    1  LIG1        0.0973
     35 N         -10.1906    5.4995   -0.5576 N.ar    1  LIG1       -0.2109
     36 H          -6.6552    6.0248    0.8756 H       1  LIG1        0.0639
     37 O          -9.6855    3.3391   -1.0653 O.3     1  LIG1       -0.4792
     38 C         -11.0175    3.2435   -1.5770 C.3     1  LIG1        0.0804
     39 H         -11.1239    2.2098   -1.8914 H       1  LIG1        0.0660
     40 H         -11.7341    3.4984   -0.7972 H       1  LIG1        0.0660
     41 H         -11.1424    3.9234   -2.4184 H       1  LIG1        0.0660
     42 N          -7.9302    9.1965    1.5144 N.1     1  LIG1       -0.1908
     43 C          -8.2240    8.1869    1.0550 C.1     1  LIG1        0.1013
     44 C         -12.1744    7.5270    0.4470 C.ar    1  LIG1        0.2240
     45 C         -10.8843    7.7532   -0.0920 C.ar    1  LIG1        0.0644
     46 C         -10.6377    8.9862   -0.6592 C.ar    1  LIG1       -0.0285
     47 C         -11.6651    9.9404   -0.6920 C.ar    1  LIG1        0.0707
     48 C         -12.8975    9.6098   -0.1455 C.ar    1  LIG1        0.0488
     49 N         -13.1406    8.4267    0.4148 N.ar    1  LIG1       -0.2195
     50 H          -9.6680    9.2175   -1.0814 H       1  LIG1        0.0639
     51 H         -13.7126   10.3224   -0.1584 H       1  LIG1        0.0844
     52 O         -12.4045    6.3559    1.0329 O.3     1  LIG1       -0.4792
     53 C         -13.6961    6.1554    1.6109 C.3     1  LIG1        0.0804
     54 H         -13.6580    5.1591    2.0409 H       1  LIG1        0.0660
     55 H         -13.8838    6.9063    2.3769 H       1  LIG1        0.0660
     56 H         -14.4638    6.2223    0.8416 H       1  LIG1        0.0660
     57 N         -11.3064   12.2764   -1.7544 N.1     1  LIG1       -0.1908
     58 C         -11.4609   11.2414   -1.2839 C.1     1  LIG1        0.1007
@<TRIPOS>BOND
     1    41    38    1
     2    13    10    1
     3    39    38    1
     4    11    10    1
     5    57    58    3
     6    28    29    3
     7    38    37    1
     8    38    40    1
     9    10     9    1
    10    10    12    1
    11    58    47    1
    12    29    19    1
    13    50    46    1
    14    37    30    1
    15     9     1    1
    16    22    18    1
    17    47    46   ar
    18    47    48   ar
    19    46    45   ar
    20    35    30   ar
    21    35    34   ar
    22    19    18   ar
    23    19    20   ar
    24    30    31   ar
    25    18    17   ar
    26     6     1   ar
    27     6     5   ar
    28     1     2   ar
    29    51    48    1
    30    48    49   ar
    31    45    34    1
    32    45    44   ar
    33    34    33   ar
    34    31    20    1
    35    31    32   ar
    36    20    21   ar
    37    17     5    1
    38    17    16   ar
    39     8     2    1
    40     5     4   ar
    41     2     3   ar
    42    49    44   ar
    43    44    52    1
    44    32    33   ar
    45    32    36    1
    46    33    43    1
    47    21    16   ar
    48    16    23    1
    49     3     4   ar
    50     3     7    1
    51     4    15    1
    52    27    24    1
    53    56    53    1
    54    52    53    1
    55    43    42    3
    56    23    24    1
    57    15    14    3
    58    24    25    1
    59    24    26    1
    60    53    54    1
    61    53    55    1
