@<TRIPOS>MOLECULE
mol_data/opt/m06hf/geoms/mol2/6ld6ld6ld.out
 44 46 0 0 0
SMALL
GASTEIGER

@<TRIPOS>ATOM
      1 C          -4.2519   -1.9770   -0.7395 C.ar    1  LIG1        0.2150
      2 C          -3.2229   -2.2433    0.1891 C.ar    1  LIG1        0.0012
      3 C          -2.9695   -1.2886    1.1411 C.ar    1  LIG1       -0.0372
      4 C          -3.7337   -0.1061    1.1502 C.ar    1  LIG1        0.0781
      5 C          -4.7154    0.0658    0.1769 C.ar    1  LIG1        0.0972
      6 N          -4.9560   -0.8635   -0.7512 N.ar    1  LIG1       -0.2114
      7 H          -2.2020   -1.4319    1.8899 H       1  LIG1        0.0633
      8 H          -2.6815   -3.1754    0.1278 H       1  LIG1        0.0671
      9 O          -4.5110   -2.9165   -1.6468 O.3     1  LIG1       -0.4796
     10 C          -5.5974   -2.6703   -2.5434 C.3     1  LIG1        0.0804
     11 H          -5.6827   -3.5737   -3.1393 H       1  LIG1        0.0660
     12 H          -6.5090   -2.4800   -1.9782 H       1  LIG1        0.0660
     13 H          -5.3756   -1.8075   -3.1699 H       1  LIG1        0.0660
     14 N          -3.2971    1.6724    2.9835 N.1     1  LIG1       -0.1908
     15 C          -3.5030    0.8897    2.1698 C.1     1  LIG1        0.1013
     16 C          -6.9563    1.2291    0.0402 C.ar    1  LIG1        0.2245
     17 C          -5.5419    1.3037    0.1047 C.ar    1  LIG1        0.0645
     18 C          -4.9802    2.5614    0.0879 C.ar    1  LIG1       -0.0279
     19 C          -5.8076    3.6920   -0.0004 C.ar    1  LIG1        0.0787
     20 C          -7.1863    3.5071   -0.0854 C.ar    1  LIG1        0.0973
     21 N          -7.7300    2.2899   -0.0672 N.ar    1  LIG1       -0.2109
     22 H          -3.9066    2.6882    0.1466 H       1  LIG1        0.0639
     23 O          -7.5241    0.0307    0.1164 O.3     1  LIG1       -0.4792
     24 C          -8.9540   -0.0061    0.1334 C.3     1  LIG1        0.0804
     25 H          -9.2058   -1.0495    0.2973 H       1  LIG1        0.0660
     26 H          -9.3327    0.6250    0.9364 H       1  LIG1        0.0660
     27 H          -9.3458    0.3471   -0.8190 H       1  LIG1        0.0660
     28 N          -4.7516    6.0585    0.0039 N.1     1  LIG1       -0.1908
     29 C          -5.2265    5.0138    0.0086 C.1     1  LIG1        0.1013
     30 C          -9.2231    4.7838    0.6835 C.ar    1  LIG1        0.2240
     31 C          -8.1291    4.6545   -0.2082 C.ar    1  LIG1        0.0644
     32 C          -7.9876    5.6174   -1.1856 C.ar    1  LIG1       -0.0285
     33 C          -8.9286    6.6541   -1.2656 C.ar    1  LIG1        0.0707
     34 C          -9.9719    6.6774   -0.3502 C.ar    1  LIG1        0.0488
     35 N         -10.1082    5.7611    0.6057 N.ar    1  LIG1       -0.2195
     36 H          -7.1676    5.5737   -1.8913 H       1  LIG1        0.0639
     37 H         -10.7189    7.4602   -0.3885 H       1  LIG1        0.0844
     38 O          -9.3413    3.8850    1.6546 O.3     1  LIG1       -0.4792
     39 C         -10.4272    4.0457    2.5701 C.3     1  LIG1        0.0804
     40 H         -10.3300    3.2196    3.2681 H       1  LIG1        0.0660
     41 H         -10.3448    5.0028    3.0829 H       1  LIG1        0.0660
     42 H         -11.3752    4.0003    2.0366 H       1  LIG1        0.0660
     43 N          -8.7746    8.4794   -3.0979 N.1     1  LIG1       -0.1908
     44 C          -8.8373    7.6721   -2.2851 C.1     1  LIG1        0.1007
@<TRIPOS>BOND
     1    13    10    1
     2    11    10    1
     3    43    44    3
     4    10    12    1
     5    10     9    1
     6    44    33    1
     7    36    32    1
     8     9     1    1
     9    33    32   ar
    10    33    34   ar
    11    32    31   ar
    12    27    24    1
    13     6     1   ar
    14     6     5   ar
    15     1     2   ar
    16    37    34    1
    17    34    35   ar
    18    31    20    1
    19    31    30   ar
    20    20    21   ar
    21    20    19   ar
    22    21    16   ar
    23    19    29    1
    24    19    18   ar
    25    28    29    3
    26    16    17   ar
    27    16    23    1
    28    18    17   ar
    29    18    22    1
    30    17     5    1
    31    23    24    1
    32     8     2    1
    33    24    25    1
    34    24    26    1
    35     5     4   ar
    36     2     3   ar
    37    35    30   ar
    38    30    38    1
    39     3     4   ar
    40     3     7    1
    41     4    15    1
    42    38    39    1
    43    42    39    1
    44    15    14    3
    45    39    41    1
    46    39    40    1
