@<TRIPOS>MOLECULE
mol_data/opt/m06hf/geoms/mol2/6ld6ld.out
 30 31 0 0 0
SMALL
GASTEIGER

@<TRIPOS>ATOM
      1 C          -4.5324   -2.0215   -0.3904 C.ar    1  LIG1        0.2150
      2 C          -3.2448   -2.1286    0.1753 C.ar    1  LIG1        0.0012
      3 C          -2.6901   -0.9896    0.7023 C.ar    1  LIG1       -0.0372
      4 C          -3.4185    0.2141    0.6575 C.ar    1  LIG1        0.0781
      5 C          -4.6784    0.2148    0.0630 C.ar    1  LIG1        0.0972
      6 N          -5.2125   -0.8946   -0.4535 N.ar    1  LIG1       -0.2114
      7 H          -1.7100   -1.0016    1.1598 H       1  LIG1        0.0633
      8 H          -2.7447   -3.0853    0.1815 H       1  LIG1        0.0671
      9 O          -5.0757   -3.1328   -0.8851 O.3     1  LIG1       -0.4796
     10 C          -6.3962   -3.0230   -1.4214 C.3     1  LIG1        0.0804
     11 H          -6.6695   -4.0334   -1.7092 H       1  LIG1        0.0660
     12 H          -7.0731   -2.6292   -0.6639 H       1  LIG1        0.0660
     13 H          -6.3944   -2.3572   -2.2834 H       1  LIG1        0.0660
     14 N          -2.4023    2.3576    1.7011 N.1     1  LIG1       -0.1908
     15 C          -2.8636    1.4130    1.2402 C.1     1  LIG1        0.1013
     16 C          -6.8325    1.4887    0.4118 C.ar    1  LIG1        0.2240
     17 C          -5.4926    1.4583   -0.0483 C.ar    1  LIG1        0.0644
     18 C          -4.9886    2.6115   -0.6123 C.ar    1  LIG1       -0.0285
     19 C          -5.8153    3.7386   -0.7219 C.ar    1  LIG1        0.0707
     20 C          -7.1193    3.6545   -0.2535 C.ar    1  LIG1        0.0488
     21 N          -7.6107    2.5504    0.3053 N.ar    1  LIG1       -0.2195
     22 H          -3.9706    2.6482   -0.9785 H       1  LIG1        0.0639
     23 H          -7.7855    4.5043   -0.3298 H       1  LIG1        0.0844
     24 O          -7.3120    0.3960    0.9974 O.3     1  LIG1       -0.4792
     25 C          -8.6545    0.4502    1.4838 C.3     1  LIG1        0.0804
     26 H          -8.8292   -0.5231    1.9320 H       1  LIG1        0.0660
     27 H          -8.7542    1.2447    2.2216 H       1  LIG1        0.0660
     28 H          -9.3429    0.6322    0.6600 H       1  LIG1        0.0660
     29 N          -4.9653    5.9263   -1.8194 N.1     1  LIG1       -0.1908
     30 C          -5.3384    4.9587   -1.3285 C.1     1  LIG1        0.1007
@<TRIPOS>BOND
     1    13    10    1
     2    29    30    3
     3    11    10    1
     4    10     9    1
     5    10    12    1
     6    30    19    1
     7    22    18    1
     8     9     1    1
     9    19    18   ar
    10    19    20   ar
    11    18    17   ar
    12     6     1   ar
    13     6     5   ar
    14     1     2   ar
    15    23    20    1
    16    20    21   ar
    17    17     5    1
    18    17    16   ar
    19     5     4   ar
    20     2     8    1
    21     2     3   ar
    22    21    16   ar
    23    16    24    1
    24     4     3   ar
    25     4    15    1
    26    28    25    1
    27     3     7    1
    28    24    25    1
    29    15    14    3
    30    25    26    1
    31    25    27    1
