@<TRIPOS>MOLECULE
mol_data/opt/m06hf/geoms/mol2/6le6le.out
 32 33 0 0 0
SMALL
GASTEIGER

@<TRIPOS>ATOM
      1 C          -4.5334   -1.9925   -0.4999 C.ar    1  LIG1        0.2150
      2 C          -3.2226   -2.1121   -0.0010 C.ar    1  LIG1        0.0012
      3 C          -2.6449   -0.9826    0.5258 C.ar    1  LIG1       -0.0392
      4 C          -3.3640    0.2288    0.5540 C.ar    1  LIG1        0.0510
      5 C          -4.6548    0.2320    0.0219 C.ar    1  LIG1        0.0952
      6 N          -5.2129   -0.8664   -0.4983 N.ar    1  LIG1       -0.2115
      7 H          -1.6432   -1.0067    0.9332 H       1  LIG1        0.0632
      8 H          -2.7211   -3.0672   -0.0420 H       1  LIG1        0.0671
      9 O          -5.1051   -3.0945   -1.0007 O.3     1  LIG1       -0.4796
     10 C          -6.4501   -2.9606   -1.4592 C.3     1  LIG1        0.0804
     11 H          -6.7479   -3.9596   -1.7640 H       1  LIG1        0.0660
     12 H          -7.0830   -2.5861   -0.6549 H       1  LIG1        0.0660
     13 H          -6.4934   -2.2668   -2.2980 H       1  LIG1        0.0660
     14 C          -2.7669    1.4036    1.1374 C.1     1  LIG1       -0.0675
     15 C          -2.2415    2.3675    1.6267 C.1     1  LIG1       -0.1138
     16 H          -1.7874    3.2282    2.0603 H       1  LIG1        0.1232
     17 C          -6.8073    1.4784    0.4812 C.ar    1  LIG1        0.2240
     18 C          -5.4836    1.4704   -0.0184 C.ar    1  LIG1        0.0643
     19 C          -5.0060    2.6465   -0.5600 C.ar    1  LIG1       -0.0305
     20 C          -5.8305    3.7817   -0.6087 C.ar    1  LIG1        0.0436
     21 C          -7.1183    3.6651   -0.1001 C.ar    1  LIG1        0.0468
     22 N          -7.5912    2.5394    0.4346 N.ar    1  LIG1       -0.2196
     23 H          -3.9991    2.6942   -0.9533 H       1  LIG1        0.0638
     24 H          -7.7899    4.5138   -0.1233 H       1  LIG1        0.0843
     25 O          -7.2703    0.3610    1.0460 O.3     1  LIG1       -0.4792
     26 C          -8.6001    0.3973    1.5586 C.3     1  LIG1        0.0804
     27 H          -8.7677   -0.5906    1.9778 H       1  LIG1        0.0660
     28 H          -8.6889    1.1666    2.3249 H       1  LIG1        0.0660
     29 H          -9.3070    0.6069    0.7567 H       1  LIG1        0.0660
     30 C          -5.3698    5.0249   -1.1717 C.1     1  LIG1       -0.0681
     31 C          -4.9845    6.0625   -1.6392 C.1     1  LIG1       -0.1139
     32 H          -4.6451    6.9828   -2.0543 H       1  LIG1        0.1232
@<TRIPOS>BOND
     1    13    10    1
     2    32    31    1
     3    11    10    1
     4    31    30    3
     5    10     9    1
     6    10    12    1
     7    30    20    1
     8     9     1    1
     9    23    19    1
    10    20    19   ar
    11    20    21   ar
    12    19    18   ar
    13     1     6   ar
    14     1     2   ar
    15     6     5   ar
    16    24    21    1
    17    21    22   ar
    18     8     2    1
    19    18     5    1
    20    18    17   ar
    21     2     3   ar
    22     5     4   ar
    23    22    17   ar
    24    17    25    1
    25     3     4   ar
    26     3     7    1
    27     4    14    1
    28    29    26    1
    29    25    26    1
    30    14    15    3
    31    26    27    1
    32    26    28    1
    33    15    16    1
