@<TRIPOS>MOLECULE
mol_data/opt/m06hf/geoms/mol2/6le6fd-12ha-6ff-.out
 48 51 0 0 0
SMALL
GASTEIGER

@<TRIPOS>ATOM
      1 C          -4.5350   -2.1118    0.0070 C.ar    1  LIG1        0.2150
      2 C          -3.1386   -2.2171    0.1180 C.ar    1  LIG1        0.0012
      3 C          -2.4329   -1.0429    0.1913 C.ar    1  LIG1       -0.0392
      4 C          -3.0837    0.2079    0.1321 C.ar    1  LIG1        0.0510
      5 C          -4.4731    0.2184   -0.0281 C.ar    1  LIG1        0.0952
      6 N          -5.1508   -0.9495   -0.0639 N.ar    1  LIG1       -0.2115
      7 H          -1.3571   -1.0536    0.3059 H       1  LIG1        0.0632
      8 H          -2.6779   -3.1919    0.1616 H       1  LIG1        0.0671
      9 O          -5.2459   -3.2368   -0.0263 O.3     1  LIG1       -0.4796
     10 C          -6.6673   -3.1256   -0.1213 C.3     1  LIG1        0.0804
     11 H          -7.0290   -4.1466   -0.1874 H       1  LIG1        0.0660
     12 H          -7.0657   -2.6387    0.7704 H       1  LIG1        0.0660
     13 H          -6.9432   -2.5607   -1.0118 H       1  LIG1        0.0660
     14 C          -2.2654    1.3826    0.2916 C.1     1  LIG1       -0.0675
     15 C          -1.5190    2.3128    0.4444 C.1     1  LIG1       -0.1138
     16 H          -0.8690    3.1461    0.5862 H       1  LIG1        0.1232
     17 C          -6.7350    1.3800    0.0646 C.ar    1  LIG1        0.2225
     18 C          -5.3171    1.4358   -0.1514 C.ar    1  LIG1        0.0642
     19 C          -4.8095    2.6664   -0.5296 C.ar    1  LIG1       -0.0278
     20 C          -5.6376    3.7884   -0.5895 C.ar    1  LIG1        0.0816
     21 C          -6.9871    3.6548   -0.2190 C.ar    1  LIG1        0.1289
     22 N          -7.4991    2.4576    0.0643 N.ar    1  LIG1       -0.2080
     23 H          -3.7708    2.7719   -0.8054 H       1  LIG1        0.0639
     24 O          -7.3518    0.2365    0.2823 O.3     1  LIG1       -0.4919
     25 H          -6.6706   -0.4866    0.1611 H       1  LIG1        0.2937
     26 N          -4.6786    6.0031   -1.5199 N.1     1  LIG1       -0.1908
     27 C          -5.1074    5.0200   -1.1050 C.1     1  LIG1        0.1014
     28 C          -7.9329    4.7605   -0.1283 C.ar    1  LIG1        0.1757
     29 C          -7.9007    6.0954    0.2203 C.ar    1  LIG1        0.0732
     30 C          -9.2781    6.5079    0.3145 C.ar    1  LIG1        0.0058
     31 C         -10.0326    5.4149    0.0227 C.ar    1  LIG1        0.1428
     32 O          -9.2386    4.3721   -0.2494 O.2     1  LIG1       -0.4512
     33 N          -6.8420    6.9055    0.5617 N.pl3   1  LIG1       -0.3550
     34 H          -5.9657    6.7617    0.0800 H       1  LIG1        0.1424
     35 H          -7.0824    7.8802    0.6604 H       1  LIG1        0.1424
     36 H          -9.6305    7.4826    0.6084 H       1  LIG1        0.0674
     37 C         -12.0322    3.8809    0.1242 C.ar    1  LIG1        0.2234
     38 C         -11.4790    5.1764   -0.0307 C.ar    1  LIG1        0.0820
     39 C         -12.3470    6.2483   -0.2037 C.ar    1  LIG1       -0.0029
     40 C         -13.7161    6.0282   -0.1998 C.ar    1  LIG1        0.1358
     41 C         -14.1595    4.7211   -0.0271 C.ar    1  LIG1        0.0728
     42 N         -13.3396    3.6886    0.1240 N.ar    1  LIG1       -0.2172
     43 H         -11.9720    7.2518   -0.3569 H       1  LIG1        0.0663
     44 H         -15.2231    4.4996   -0.0152 H       1  LIG1        0.0868
     45 O         -11.3017    2.7703    0.2943 O.3     1  LIG1       -0.4919
     46 H         -10.3491    2.9220    0.2063 H       1  LIG1        0.2937
     47 O         -14.5524    7.0927   -0.3667 O.3     1  LIG1       -0.5052
     48 H         -15.4658    6.7955   -0.4350 H       1  LIG1        0.2922
@<TRIPOS>BOND
     1    26    27    3
     2    27    20    1
     3    13    10    1
     4    23    19    1
     5    20    19   ar
     6    20    21   ar
     7    19    18   ar
     8    48    47    1
     9    47    40    1
    10    43    39    1
    11    32    28   ar
    12    32    31   ar
    13    21    28    1
    14    21    22   ar
    15    39    40   ar
    16    39    38   ar
    17    40    41   ar
    18    11    10    1
    19    18     5    1
    20    18    17   ar
    21    28    29   ar
    22    10     9    1
    23    10    12    1
    24     6     5   ar
    25     6     1   ar
    26    38    31    1
    27    38    37   ar
    28     5     4   ar
    29    41    44    1
    30    41    42   ar
    31     9     1    1
    32     1     2   ar
    33    31    30   ar
    34    22    17   ar
    35    17    24    1
    36    34    33    1
    37     2     8    1
    38     2     3   ar
    39    42    37   ar
    40    37    45    1
    41     4     3   ar
    42     4    14    1
    43    25    24    1
    44     3     7    1
    45    46    45    1
    46    29    30   ar
    47    29    33    1
    48    14    15    3
    49    30    36    1
    50    15    16    1
    51    33    35    1
