@<TRIPOS>MOLECULE
mol_data/opt/m06hf/geoms/mol2/6le6le6le6le.out
 62 65 0 0 0
SMALL
GASTEIGER

@<TRIPOS>ATOM
      1 C          -3.8459   -1.6945   -1.2721 C.ar    1  LIG1        0.2150
      2 C          -3.0741   -2.2568   -0.2372 C.ar    1  LIG1        0.0012
      3 C          -3.1158   -1.6348    0.9866 C.ar    1  LIG1       -0.0392
      4 C          -3.9126   -0.4864    1.1680 C.ar    1  LIG1        0.0510
      5 C          -4.6284   -0.0117    0.0674 C.ar    1  LIG1        0.0952
      6 N          -4.5786   -0.6126   -1.1267 N.ar    1  LIG1       -0.2115
      7 H          -2.5521   -2.0179    1.8266 H       1  LIG1        0.0632
      8 H          -2.4901   -3.1441   -0.4296 H       1  LIG1        0.0671
      9 O          -3.8215   -2.3071   -2.4617 O.3     1  LIG1       -0.4796
     10 C          -4.6405   -1.7427   -3.4860 C.3     1  LIG1        0.0804
     11 H          -4.5433   -2.4165   -4.3325 H       1  LIG1        0.0660
     12 H          -5.6739   -1.6791   -3.1460 H       1  LIG1        0.0660
     13 H          -4.2865   -0.7441   -3.7402 H       1  LIG1        0.0660
     14 C          -3.9806    0.1423    2.4629 C.1     1  LIG1       -0.0675
     15 C          -4.0171    0.6455    3.5540 C.1     1  LIG1       -0.1138
     16 H          -4.0618    1.0992    4.5169 H       1  LIG1        0.1232
     17 C          -6.8159    1.1987   -0.3248 C.ar    1  LIG1        0.2245
     18 C          -5.4807    1.2079    0.1446 C.ar    1  LIG1        0.0643
     19 C          -5.0093    2.4001    0.6504 C.ar    1  LIG1       -0.0299
     20 C          -5.8298    3.5413    0.6741 C.ar    1  LIG1        0.0516
     21 C          -7.1203    3.4221    0.1555 C.ar    1  LIG1        0.0953
     22 N          -7.5835    2.2671   -0.3292 N.ar    1  LIG1       -0.2109
     23 H          -4.0005    2.4650    1.0367 H       1  LIG1        0.0639
     24 O          -7.3270    0.0461   -0.7625 O.3     1  LIG1       -0.4792
     25 C          -8.6988    0.0648   -1.1558 C.3     1  LIG1        0.0804
     26 H          -8.9397   -0.9688   -1.3870 H       1  LIG1        0.0660
     27 H          -9.3171    0.4446   -0.3430 H       1  LIG1        0.0660
     28 H          -8.8295    0.7011   -2.0304 H       1  LIG1        0.0660
     29 C          -5.3294    4.7744    1.2275 C.1     1  LIG1       -0.0675
     30 C          -4.8868    5.7894    1.6952 C.1     1  LIG1       -0.1138
     31 H          -4.5044    6.6929    2.1107 H       1  LIG1        0.1232
     32 C          -9.3830    4.4777    0.5738 C.ar    1  LIG1        0.2245
     33 C          -8.0571    4.5785    0.0884 C.ar    1  LIG1        0.0643
     34 C          -7.6904    5.7829   -0.4716 C.ar    1  LIG1       -0.0299
     35 C          -8.6131    6.8403   -0.5578 C.ar    1  LIG1        0.0516
     36 C          -9.9029    6.6166   -0.0739 C.ar    1  LIG1        0.0953
     37 N         -10.2605    5.4529    0.4758 N.ar    1  LIG1       -0.2109
     38 H          -6.6857    5.9242   -0.8475 H       1  LIG1        0.0639
     39 O          -9.7512    3.3472    1.1798 O.3     1  LIG1       -0.4792
     40 C         -11.0758    3.3096    1.7109 C.3     1  LIG1        0.0804
     41 H         -11.1481    2.3535    2.2210 H       1  LIG1        0.0660
     42 H         -11.2272    4.1409    2.3995 H       1  LIG1        0.0660
     43 H         -11.8042    3.3789    0.9039 H       1  LIG1        0.0660
     44 C          -8.2076    8.1026   -1.1232 C.1     1  LIG1       -0.0675
     45 C          -7.8382    9.1425   -1.5996 C.1     1  LIG1       -0.1138
     46 H          -7.5157   10.0674   -2.0188 H       1  LIG1        0.1232
     47 C         -11.7215    8.0320    0.9713 C.ar    1  LIG1        0.2240
     48 C         -10.9669    7.6559   -0.1643 C.ar    1  LIG1        0.0643
     49 C         -11.2739    8.2728   -1.3601 C.ar    1  LIG1       -0.0305
     50 C         -12.3092    9.2197   -1.4145 C.ar    1  LIG1        0.0436
     51 C         -12.9877    9.5011   -0.2352 C.ar    1  LIG1        0.0468
     52 N         -12.6952    8.9224    0.9296 N.ar    1  LIG1       -0.2196
     53 H         -10.7229    8.0238   -2.2576 H       1  LIG1        0.0638
     54 H         -13.7968   10.2205   -0.2318 H       1  LIG1        0.0843
     55 O         -11.4136    7.4709    2.1430 O.3     1  LIG1       -0.4792
     56 C         -12.1612    7.8940    3.2803 C.3     1  LIG1        0.0804
     57 H         -11.7512    7.3300    4.1132 H       1  LIG1        0.0660
     58 H         -12.0377    8.9652    3.4361 H       1  LIG1        0.0660
     59 H         -13.2184    7.6713    3.1407 H       1  LIG1        0.0660
     60 C         -12.6663    9.8748   -2.6469 C.1     1  LIG1       -0.0681
     61 C         -12.9620   10.4168   -3.6780 C.1     1  LIG1       -0.1139
     62 H         -13.2233   10.8935   -4.5942 H       1  LIG1        0.1232
@<TRIPOS>BOND
     1    62    61    1
     2    11    10    1
     3    13    10    1
     4    61    60    3
     5    10    12    1
     6    10     9    1
     7    60    50    1
     8     9     1    1
     9    53    49    1
    10    28    25    1
    11    46    45    1
    12    45    44    3
    13    50    49   ar
    14    50    51   ar
    15    26    25    1
    16    49    48   ar
    17     1     6   ar
    18     1     2   ar
    19    25    24    1
    20    25    27    1
    21     6     5   ar
    22    44    35    1
    23    38    34    1
    24    24    17    1
    25    35    34   ar
    26    35    36   ar
    27    34    33   ar
    28     8     2    1
    29    22    17   ar
    30    22    21   ar
    31    17    18   ar
    32     2     3   ar
    33    51    54    1
    34    51    52   ar
    35    48    36    1
    36    48    47   ar
    37    36    37   ar
    38     5    18    1
    39     5     4   ar
    40    33    21    1
    41    33    32   ar
    42    18    19   ar
    43    21    20   ar
    44    37    32   ar
    45    32    39    1
    46    19    20   ar
    47    19    23    1
    48    20    29    1
    49    43    40    1
    50    52    47   ar
    51    47    55    1
    52     3     4   ar
    53     3     7    1
    54     4    14    1
    55    39    40    1
    56    29    30    3
    57    30    31    1
    58    40    41    1
    59    40    42    1
    60    55    56    1
    61    14    15    3
    62    59    56    1
    63    56    58    1
    64    56    57    1
    65    15    16    1
