@<TRIPOS>MOLECULE
mol_data/opt/m06hf/geoms/mol2/6le6le6le.out
 47 49 0 0 0
SMALL
GASTEIGER

@<TRIPOS>ATOM
      1 C          -4.2466   -1.9205   -0.9067 C.ar    1  LIG1        0.2150
      2 C          -3.1719   -2.2046   -0.0419 C.ar    1  LIG1        0.0012
      3 C          -2.8690   -1.2653    0.9130 C.ar    1  LIG1       -0.0392
      4 C          -3.6232   -0.0776    0.9984 C.ar    1  LIG1        0.0510
      5 C          -4.6559    0.1046    0.0769 C.ar    1  LIG1        0.0952
      6 N          -4.9457   -0.8080   -0.8569 N.ar    1  LIG1       -0.2115
      7 H          -2.0620   -1.4246    1.6155 H       1  LIG1        0.0632
      8 H          -2.6342   -3.1348   -0.1485 H       1  LIG1        0.0671
      9 O          -4.5605   -2.8443   -1.8227 O.3     1  LIG1       -0.4796
     10 C          -5.6970   -2.5678   -2.6414 C.3     1  LIG1        0.0804
     11 H          -5.8330   -3.4574   -3.2496 H       1  LIG1        0.0660
     12 H          -6.5694   -2.3766   -2.0168 H       1  LIG1        0.0660
     13 H          -5.5071   -1.6943   -3.2642 H       1  LIG1        0.0660
     14 C          -3.3280    0.8867    2.0277 C.1     1  LIG1       -0.0675
     15 C          -3.0624    1.6738    2.8964 C.1     1  LIG1       -0.1138
     16 H          -2.8401    2.3768    3.6653 H       1  LIG1        0.1232
     17 C          -6.9014    1.2740    0.0415 C.ar    1  LIG1        0.2245
     18 C          -5.4879    1.3407    0.0622 C.ar    1  LIG1        0.0643
     19 C          -4.9258    2.5990    0.0484 C.ar    1  LIG1       -0.0299
     20 C          -5.7393    3.7447    0.0115 C.ar    1  LIG1        0.0516
     21 C          -7.1219    3.5571   -0.0282 C.ar    1  LIG1        0.0953
     22 N          -7.6708    2.3398   -0.0171 N.ar    1  LIG1       -0.2109
     23 H          -3.8501    2.7136    0.0736 H       1  LIG1        0.0639
     24 O          -7.4795    0.0729    0.1091 O.3     1  LIG1       -0.4792
     25 C          -8.9056    0.0549    0.1626 C.3     1  LIG1        0.0804
     26 H          -9.1695   -0.9888    0.3082 H       1  LIG1        0.0660
     27 H          -9.2578    0.6723    0.9884 H       1  LIG1        0.0660
     28 H          -9.3198    0.4363   -0.7698 H       1  LIG1        0.0660
     29 C          -5.1351    5.0532    0.0285 C.1     1  LIG1       -0.0675
     30 C          -4.6001    6.1295    0.0405 C.1     1  LIG1       -0.1138
     31 H          -4.1320    7.0865    0.0518 H       1  LIG1        0.1232
     32 C          -9.1510    4.8142    0.8062 C.ar    1  LIG1        0.2240
     33 C          -8.0698    4.7053   -0.0996 C.ar    1  LIG1        0.0643
     34 C          -7.9451    5.6925   -1.0561 C.ar    1  LIG1       -0.0305
     35 C          -8.8798    6.7392   -1.1087 C.ar    1  LIG1        0.0436
     36 C          -9.9085    6.7328   -0.1748 C.ar    1  LIG1        0.0468
     37 N         -10.0353    5.7932    0.7621 N.ar    1  LIG1       -0.2196
     38 H          -7.1317    5.6591   -1.7692 H       1  LIG1        0.0638
     39 H         -10.6557    7.5163   -0.1829 H       1  LIG1        0.0843
     40 O          -9.2614    3.8912    1.7643 O.3     1  LIG1       -0.4792
     41 C         -10.3498    4.0287    2.6747 C.3     1  LIG1        0.0804
     42 H         -10.2543    3.1895    3.3579 H       1  LIG1        0.0660
     43 H         -10.2784    4.9760    3.2079 H       1  LIG1        0.0660
     44 H         -11.2967    3.9899    2.1380 H       1  LIG1        0.0660
     45 C          -8.7884    7.7822   -2.0982 C.1     1  LIG1       -0.0681
     46 C          -8.7101    8.6500   -2.9254 C.1     1  LIG1       -0.1139
     47 H          -8.6410    9.4176   -3.6606 H       1  LIG1        0.1232
@<TRIPOS>BOND
     1    47    46    1
     2    13    10    1
     3    11    10    1
     4    46    45    3
     5    10    12    1
     6    10     9    1
     7    45    35    1
     8     9     1    1
     9    38    34    1
    10    35    34   ar
    11    35    36   ar
    12    34    33   ar
    13     1     6   ar
    14     1     2   ar
    15     6     5   ar
    16    28    25    1
    17    39    36    1
    18    36    37   ar
    19     8     2    1
    20    33    21    1
    21    33    32   ar
    22     2     3   ar
    23    21    22   ar
    24    21    20   ar
    25    22    17   ar
    26    20    29    1
    27    20    19   ar
    28    29    30    3
    29    30    31    1
    30    17    18   ar
    31    17    24    1
    32    19    18   ar
    33    19    23    1
    34    18     5    1
    35     5     4   ar
    36    24    25    1
    37    25    26    1
    38    25    27    1
    39    37    32   ar
    40    32    40    1
    41     3     4   ar
    42     3     7    1
    43     4    14    1
    44    40    41    1
    45    14    15    3
    46    44    41    1
    47    41    43    1
    48    41    42    1
    49    15    16    1
