@<TRIPOS>MOLECULE
mol_data/opt/m06hf/geoms/mol2/6lf12ee-12hd-4ed.out
 50 53 0 0 0
SMALL
GASTEIGER

@<TRIPOS>ATOM
      1 C          -4.6347   -2.0326    0.2586 C.ar    1  LIG1        0.2153
      2 C          -3.3807   -2.1262    0.9041 C.ar    1  LIG1        0.0035
      3 C          -2.7810   -0.9599    1.3023 C.ar    1  LIG1       -0.0129
      4 C          -3.4117    0.2783    1.0687 C.ar    1  LIG1        0.1460
      5 C          -4.6399    0.2536    0.4223 C.ar    1  LIG1        0.1522
      6 N          -5.2291   -0.8927    0.0260 N.ar    1  LIG1       -0.2060
      7 H          -1.8263   -0.9497    1.8110 H       1  LIG1        0.0656
      8 H          -2.9390   -3.0984    1.0660 H       1  LIG1        0.0672
      9 O          -5.2153   -3.1826   -0.1208 O.3     1  LIG1       -0.4796
     10 C          -6.4920   -3.0822   -0.7495 C.3     1  LIG1        0.0804
     11 H          -6.7944   -4.1030   -0.9617 H       1  LIG1        0.0660
     12 H          -7.2035   -2.5977   -0.0801 H       1  LIG1        0.0660
     13 H          -6.4130   -2.5030   -1.6694 H       1  LIG1        0.0660
     14 O          -2.7952    1.3809    1.5603 O.3     1  LIG1       -0.5045
     15 H          -2.9666    2.1726    1.0320 H       1  LIG1        0.2922
     16 C          -5.4404    1.4633    0.1514 C.ar    1  LIG1        0.1742
     17 C          -5.1610    2.7508   -0.2125 C.ar    1  LIG1        0.0881
     18 C          -6.4367    3.4131   -0.3877 C.ar    1  LIG1        0.0896
     19 C          -7.3779    2.4607   -0.1050 C.ar    1  LIG1        0.1890
     20 O          -6.7750    1.3049    0.2182 O.2     1  LIG1       -0.4475
     21 C          -3.8710    3.3153   -0.4512 C.1     1  LIG1       -0.0646
     22 C          -2.7718    3.7691   -0.6340 C.1     1  LIG1       -0.1138
     23 H          -1.8036    4.1762   -0.8172 H       1  LIG1        0.1232
     24 C          -6.6310    4.7501   -0.8498 C.1     1  LIG1       -0.0645
     25 C          -6.7629    5.8746   -1.2571 C.1     1  LIG1       -0.1138
     26 H          -6.8563    6.8673   -1.6345 H       1  LIG1        0.1232
     27 C          -8.8234    2.4249   -0.1026 C.ar    1  LIG1        0.1936
     28 C          -9.8222    3.3618   -0.0848 C.ar    1  LIG1        0.0924
     29 C         -11.0488    2.5937   -0.1110 C.ar    1  LIG1        0.1188
     30 C         -10.6971    1.2684   -0.1166 C.ar    1  LIG1        0.1562
     31 O          -9.3682    1.1751   -0.1167 O.2     1  LIG1       -0.4484
     32 N          -9.7684    4.7242    0.0108 N.pl3   1  LIG1       -0.3539
     33 H          -8.9110    5.1760   -0.2752 H       1  LIG1        0.1425
     34 H         -10.6211    5.2143   -0.2188 H       1  LIG1        0.1425
     35 N         -13.2841    3.8491   -0.3414 N.1     1  LIG1       -0.1907
     36 C         -12.3253    3.2273   -0.2260 C.1     1  LIG1        0.1049
     37 C         -12.6385   -0.2837    0.4126 C.ar    1  LIG1        0.0354
     38 C         -13.2069   -1.5608    0.3059 C.ar    1  LIG1       -0.0444
     39 C         -11.3933   -0.0283   -0.1838 C.ar    1  LIG1        0.0352
     40 C         -12.5426   -2.5834   -0.3501 C.ar    1  LIG1       -0.0432
     41 H         -14.1686   -1.7373    0.7661 H       1  LIG1        0.0630
     42 C         -10.7165   -1.0633   -0.8339 C.ar    1  LIG1       -0.0325
     43 C         -11.2862   -2.3280   -0.9079 C.ar    1  LIG1        0.0525
     44 H          -9.7432   -0.8782   -1.2677 H       1  LIG1        0.0638
     45 H         -12.9754   -3.5714   -0.4220 H       1  LIG1        0.0631
     46 C         -13.3307    0.7144    1.1845 C.1     1  LIG1       -0.0690
     47 C         -13.9264    1.5217    1.8450 C.1     1  LIG1       -0.1139
     48 H         -14.4430    2.2660    2.4074 H       1  LIG1        0.1232
     49 N          -9.9422   -4.2176   -2.0780 N.1     1  LIG1       -0.1909
     50 C         -10.5462   -3.3880   -1.5643 C.1     1  LIG1        0.0992
@<TRIPOS>BOND
     1    49    50    3
     2    13    10    1
     3    26    25    1
     4    50    43    1
     5    44    42    1
     6    25    24    3
     7    11    10    1
     8    43    42   ar
     9    43    40   ar
    10    24    18    1
    11    42    39   ar
    12    23    22    1
    13    10     9    1
    14    10    12    1
    15    22    21    3
    16    21    17    1
    17    45    40    1
    18    18    17   ar
    19    18    19   ar
    20    40    38   ar
    21    35    36    3
    22    33    32    1
    23    36    29    1
    24    34    32    1
    25    17    16   ar
    26    39    30    1
    27    39    37   ar
    28     9     1    1
    29    31    30   ar
    30    31    27   ar
    31    30    29   ar
    32    29    28   ar
    33    19    27    1
    34    19    20   ar
    35    27    28   ar
    36    28    32    1
    37     6     1   ar
    38     6     5   ar
    39    16    20   ar
    40    16     5    1
    41     1     2   ar
    42    38    37   ar
    43    38    41    1
    44    37    46    1
    45     5     4   ar
    46     2     8    1
    47     2     3   ar
    48    15    14    1
    49     4     3   ar
    50     4    14    1
    51    46    47    3
    52     3     7    1
    53    47    48    1
