@<TRIPOS>MOLECULE
mol_data/opt/m06hf/geoms/mol2/6lf4ia12el4ii.out
 58 61 0 0 0
SMALL
GASTEIGER

@<TRIPOS>ATOM
      1 C          -4.1878   -2.1369    0.7634 C.ar    1  LIG1        0.2152
      2 C          -3.2165   -2.3938   -0.2218 C.ar    1  LIG1        0.0035
      3 C          -2.9899   -1.4223   -1.1697 C.ar    1  LIG1       -0.0130
      4 C          -3.7170   -0.2266   -1.1079 C.ar    1  LIG1        0.1430
      5 C          -4.6322   -0.0558   -0.0781 C.ar    1  LIG1        0.1163
      6 N          -4.8695   -1.0161    0.8303 N.ar    1  LIG1       -0.2092
      7 H          -2.2743   -1.5557   -1.9702 H       1  LIG1        0.0656
      8 H          -2.6912   -3.3377   -0.2139 H       1  LIG1        0.0672
      9 O          -4.4098   -3.1049    1.6740 O.3     1  LIG1       -0.4796
     10 C          -5.3964   -2.8321    2.6633 C.3     1  LIG1        0.0804
     11 H          -5.4248   -3.7174    3.2925 H       1  LIG1        0.0660
     12 H          -5.1180   -1.9515    3.2422 H       1  LIG1        0.0660
     13 H          -6.3649   -2.6570    2.1950 H       1  LIG1        0.0660
     14 O          -3.4989    0.7143   -2.0690 O.3     1  LIG1       -0.5046
     15 H          -4.1807    1.3978   -2.0074 H       1  LIG1        0.2922
     16 C          -4.8044    2.4450    0.2386 C.ar    1  LIG1       -0.0405
     17 C          -5.5942    3.5933    0.2846 C.ar    1  LIG1       -0.0475
     18 C          -5.4300    1.2072    0.0143 C.ar    1  LIG1        0.0070
     19 C          -6.9799    3.5232    0.1261 C.ar    1  LIG1        0.0189
     20 H          -5.1258    4.5527    0.4611 H       1  LIG1        0.0627
     21 C          -6.8183    1.1362   -0.1208 C.ar    1  LIG1       -0.0515
     22 C          -7.5961    2.2825   -0.0673 C.ar    1  LIG1       -0.0504
     23 H          -7.2773    0.1667   -0.2659 H       1  LIG1        0.0624
     24 C          -3.3062    2.5388    0.4813 C.3     1  LIG1       -0.0391
     25 H          -3.0472    3.5432    0.8131 H       1  LIG1        0.0278
     26 H          -2.7446    2.3088   -0.4259 H       1  LIG1        0.0278
     27 H          -3.0132    1.8239    1.2516 H       1  LIG1        0.0278
     28 H          -8.6709    2.2276   -0.1726 H       1  LIG1        0.0625
     29 C          -7.8058    4.7379    0.1661 C.ar    1  LIG1        0.1547
     30 C          -7.5375    6.0699    0.3382 C.ar    1  LIG1        0.1126
     31 C          -8.8172    6.7360    0.2724 C.ar    1  LIG1        0.1817
     32 C          -9.7593    5.7757    0.0707 C.ar    1  LIG1        0.1786
     33 O          -9.1328    4.5709    0.0049 O.2     1  LIG1       -0.4498
     34 C          -6.2885    6.7360    0.5407 C.1     1  LIG1       -0.0622
     35 C          -5.2600    7.3370    0.7060 C.1     1  LIG1       -0.1137
     36 H          -4.3521    7.8715    0.8658 H       1  LIG1        0.1232
     37 O          -9.0069    8.0755    0.3554 O.3     1  LIG1       -0.4901
     38 C          -8.7506    8.7530   -0.8774 C.3     1  LIG1        0.0790
     39 H          -8.9257    9.8086   -0.6851 H       1  LIG1        0.0660
     40 H          -7.7157    8.5924   -1.1840 H       1  LIG1        0.0660
     41 H          -9.4340    8.3881   -1.6463 H       1  LIG1        0.0660
     42 C         -12.0680    6.6283    0.5906 C.ar    1  LIG1       -0.0397
     43 C         -13.4330    6.5791    0.2899 C.ar    1  LIG1       -0.0579
     44 C         -11.2162    5.7976   -0.1502 C.ar    1  LIG1        0.0241
     45 C         -13.9380    5.7322   -0.6863 C.ar    1  LIG1       -0.0586
     46 H         -14.1122    7.2104    0.8504 H       1  LIG1        0.0620
     47 C         -11.7315    4.9335   -1.1261 C.ar    1  LIG1       -0.0478
     48 C         -13.0903    4.8850   -1.4063 C.ar    1  LIG1       -0.0498
     49 H         -11.0445    4.2946   -1.6686 H       1  LIG1        0.0627
     50 H         -15.0035    5.7171   -0.8858 H       1  LIG1        0.0620
     51 C         -11.5752    7.5274    1.7086 C.3     1  LIG1       -0.0390
     52 H         -12.3979    7.7461    2.3891 H       1  LIG1        0.0278
     53 H         -11.1768    8.4599    1.3102 H       1  LIG1        0.0278
     54 H         -10.7728    7.0401    2.2637 H       1  LIG1        0.0278
     55 C         -13.6486    3.9507   -2.4644 C.3     1  LIG1       -0.0397
     56 H         -12.8554    3.3429   -2.8979 H       1  LIG1        0.0278
     57 H         -14.1241    4.5231   -3.2629 H       1  LIG1        0.0278
     58 H         -14.3963    3.2870   -2.0275 H       1  LIG1        0.0278
@<TRIPOS>BOND
     1    57    55    1
     2    56    55    1
     3    55    58    1
     4    55    48    1
     5    14    15    1
     6    14     4    1
     7     7     3    1
     8    49    47    1
     9    41    38    1
    10    48    47   ar
    11    48    45   ar
    12    40    38    1
    13     3     4   ar
    14     3     2   ar
    15    47    44   ar
    16     4     5   ar
    17    50    45    1
    18    38    39    1
    19    38    37    1
    20    45    43   ar
    21    26    24    1
    22    23    21    1
    23     2     8    1
    24     2     1   ar
    25    28    22    1
    26    44    32    1
    27    44    42   ar
    28    21    22   ar
    29    21    18   ar
    30     5    18    1
    31     5     6   ar
    32    22    19   ar
    33    33    32   ar
    34    33    29   ar
    35    18    16   ar
    36    32    31   ar
    37    19    29    1
    38    19    17   ar
    39    29    30   ar
    40    16    17   ar
    41    16    24    1
    42    31    30   ar
    43    31    37    1
    44    17    20    1
    45    43    42   ar
    46    43    46    1
    47    30    34    1
    48    24    25    1
    49    24    27    1
    50    34    35    3
    51    42    51    1
    52    35    36    1
    53     1     6   ar
    54     1     9    1
    55    53    51    1
    56     9    10    1
    57    51    54    1
    58    51    52    1
    59    13    10    1
    60    10    12    1
    61    10    11    1
