@<TRIPOS>MOLECULE
mol_data/opt/m06hf/geoms/mol2/6lf4ae-13aa4fi.out
 50 53 0 0 0
SMALL
GASTEIGER

@<TRIPOS>ATOM
      1 C          -4.2972   -2.1142    0.4396 C.ar    1  LIG1        0.2152
      2 C          -2.9399   -2.1672    0.0719 C.ar    1  LIG1        0.0035
      3 C          -2.3681   -1.0160   -0.4176 C.ar    1  LIG1       -0.0130
      4 C          -3.1358    0.1526   -0.5073 C.ar    1  LIG1        0.1429
      5 C          -4.4559    0.1161   -0.0750 C.ar    1  LIG1        0.1161
      6 N          -5.0195   -1.0220    0.3661 N.ar    1  LIG1       -0.2092
      7 H          -1.3384   -0.9818   -0.7485 H       1  LIG1        0.0656
      8 H          -2.3993   -3.0967    0.1689 H       1  LIG1        0.0672
      9 O          -4.8576   -3.2528    0.8899 O.3     1  LIG1       -0.4796
     10 C          -6.2314   -3.1853    1.2546 C.3     1  LIG1        0.0804
     11 H          -6.4899   -4.1858    1.5897 H       1  LIG1        0.0660
     12 H          -6.3766   -2.4576    2.0529 H       1  LIG1        0.0660
     13 H          -6.8376   -2.8975    0.3949 H       1  LIG1        0.0660
     14 O          -2.5400    1.2667   -1.0256 O.3     1  LIG1       -0.5046
     15 H          -3.2133    1.8638   -1.3758 H       1  LIG1        0.2922
     16 C          -4.8574    2.5979    0.2261 C.ar    1  LIG1       -0.0518
     17 C          -5.7134    3.6892    0.2183 C.ar    1  LIG1       -0.0508
     18 C          -5.3317    1.3230   -0.1083 C.ar    1  LIG1        0.0052
     19 C          -7.0626    3.5655   -0.1336 C.ar    1  LIG1        0.0137
     20 H          -5.3445    4.6580    0.5260 H       1  LIG1        0.0625
     21 C          -6.6778    1.1759   -0.4276 C.ar    1  LIG1       -0.0364
     22 C          -7.5380    2.2763   -0.4518 C.ar    1  LIG1        0.0344
     23 H          -7.0626    0.1907   -0.6556 H       1  LIG1        0.0636
     24 H          -3.8288    2.7264    0.5416 H       1  LIG1        0.0624
     25 C          -8.9130    2.0182   -0.8245 C.1     1  LIG1       -0.0690
     26 C         -10.0439    1.7409   -1.1313 C.1     1  LIG1       -0.1139
     27 H         -11.0357    1.4816   -1.4241 H       1  LIG1        0.1232
     28 C          -7.8967    4.7761   -0.1375 C.ar    1  LIG1        0.0481
     29 C          -7.5147    6.1048   -0.2402 C.ar    1  LIG1       -0.0358
     30 C          -8.6814    6.8946   -0.1373 C.ar    1  LIG1       -0.0357
     31 C          -9.7510    6.0293    0.0153 C.ar    1  LIG1        0.0504
     32 N          -9.2532    4.7602    0.0106 N.ar    1  LIG1       -0.3540
     33 H          -9.7953    3.9216    0.1587 H       1  LIG1        0.1659
     34 H          -6.5105    6.4605   -0.4010 H       1  LIG1        0.0639
     35 H          -8.7570    7.9666   -0.1794 H       1  LIG1        0.0639
     36 C         -11.7171    7.4218    0.7076 C.ar    1  LIG1        0.1259
     37 C         -13.0910    7.5892    0.8347 C.ar    1  LIG1       -0.0193
     38 C         -11.2027    6.2566    0.1197 C.ar    1  LIG1        0.0399
     39 C         -13.9660    6.6092    0.3732 C.ar    1  LIG1       -0.0554
     40 H         -13.4785    8.4879    1.3014 H       1  LIG1        0.0654
     41 C         -12.1047    5.3021   -0.3531 C.ar    1  LIG1       -0.0462
     42 C         -13.4861    5.4524   -0.2338 C.ar    1  LIG1       -0.0496
     43 H         -11.7120    4.4239   -0.8557 H       1  LIG1        0.0628
     44 H         -15.0335    6.7582    0.4826 H       1  LIG1        0.0621
     45 O         -10.8320    8.3598    1.1441 O.3     1  LIG1       -0.5061
     46 H         -11.2978    9.0920    1.5607 H       1  LIG1        0.2922
     47 C         -14.4274    4.3995   -0.7908 C.3     1  LIG1       -0.0397
     48 H         -14.0634    3.3981   -0.5575 H       1  LIG1        0.0278
     49 H         -14.5038    4.4940   -1.8758 H       1  LIG1        0.0278
     50 H         -15.4238    4.5125   -0.3645 H       1  LIG1        0.0278
@<TRIPOS>BOND
     1    49    47    1
     2    27    26    1
     3    15    14    1
     4    26    25    3
     5    14     4    1
     6    43    41    1
     7    25    22    1
     8    47    48    1
     9    47    50    1
    10    47    42    1
    11     7     3    1
    12    23    21    1
    13     4     3   ar
    14     4     5   ar
    15    22    21   ar
    16    22    19   ar
    17    21    18   ar
    18     3     2   ar
    19    34    29    1
    20    41    42   ar
    21    41    38   ar
    22    29    28   ar
    23    29    30   ar
    24    42    39   ar
    25    35    30    1
    26    28    19    1
    27    28    32   ar
    28    30    31   ar
    29    19    17   ar
    30    18     5    1
    31    18    16   ar
    32     5     6   ar
    33    32    31   ar
    34    32    33    1
    35    31    38    1
    36     2     8    1
    37     2     1   ar
    38    38    36   ar
    39    17    16   ar
    40    17    20    1
    41    16    24    1
    42     6     1   ar
    43    39    44    1
    44    39    37   ar
    45    13    10    1
    46     1     9    1
    47    36    37   ar
    48    36    45    1
    49    37    40    1
    50     9    10    1
    51    45    46    1
    52    10    11    1
    53    10    12    1
