@<TRIPOS>MOLECULE
mol_data/opt/m06hf/geoms/mol2/6lf6lf6lf6lf.out
 58 61 0 0 0
SMALL
GASTEIGER

@<TRIPOS>ATOM
      1 C          -3.7502   -1.8159   -0.7249 C.ar    1  LIG1        0.2152
      2 C          -3.1627   -2.2956    0.4619 C.ar    1  LIG1        0.0035
      3 C          -3.4384   -1.6255    1.6304 C.ar    1  LIG1       -0.0130
      4 C          -4.2782   -0.5029    1.5964 C.ar    1  LIG1        0.1431
      5 C          -4.7902   -0.1007    0.3706 C.ar    1  LIG1        0.1212
      6 N          -4.5252   -0.7599   -0.7671 N.ar    1  LIG1       -0.2090
      7 H          -3.0357   -1.9420    2.5832 H       1  LIG1        0.0656
      8 H          -2.5290   -3.1695    0.4242 H       1  LIG1        0.0672
      9 O          -3.4908   -2.4934   -1.8605 O.3     1  LIG1       -0.4796
     10 C          -4.1459   -2.0211   -3.0332 C.3     1  LIG1        0.0804
     11 H          -3.8734   -2.7224   -3.8173 H       1  LIG1        0.0660
     12 H          -5.2252   -2.0023   -2.8800 H       1  LIG1        0.0660
     13 H          -3.8052   -1.0148   -3.2771 H       1  LIG1        0.0660
     14 O          -4.5464    0.1319    2.7707 O.3     1  LIG1       -0.5046
     15 H          -5.2747    0.7542    2.6480 H       1  LIG1        0.2922
     16 C          -6.9701    1.0212   -0.2759 C.ar    1  LIG1        0.2248
     17 C          -5.6696    1.1009    0.2819 C.ar    1  LIG1        0.0690
     18 C          -5.2589    2.3361    0.7479 C.ar    1  LIG1       -0.0036
     19 C          -6.1128    3.4421    0.6497 C.ar    1  LIG1        0.1438
     20 C          -7.3561    3.2574    0.0600 C.ar    1  LIG1        0.1213
     21 N          -7.7612    2.0605   -0.3853 N.ar    1  LIG1       -0.2085
     22 H          -4.2762    2.4694    1.1850 H       1  LIG1        0.0663
     23 O          -7.4052   -0.1790   -0.6853 O.3     1  LIG1       -0.4792
     24 C          -8.7423   -0.2284   -1.1744 C.3     1  LIG1        0.0804
     25 H          -8.9273   -1.2768   -1.3917 H       1  LIG1        0.0660
     26 H          -9.4339    0.1475   -0.4201 H       1  LIG1        0.0660
     27 H          -8.8360    0.3780   -2.0751 H       1  LIG1        0.0660
     28 O          -5.6754    4.6354    1.1350 O.3     1  LIG1       -0.5046
     29 H          -6.4136    5.2551    1.1988 H       1  LIG1        0.2922
     30 C          -9.6187    4.3366    0.4231 C.ar    1  LIG1        0.2248
     31 C          -8.2987    4.4030   -0.0891 C.ar    1  LIG1        0.0690
     32 C          -7.9250    5.5731   -0.7239 C.ar    1  LIG1       -0.0036
     33 C          -8.8423    6.6244   -0.8487 C.ar    1  LIG1        0.1438
     34 C         -10.1184    6.4427   -0.3342 C.ar    1  LIG1        0.1213
     35 N         -10.4815    5.3140    0.2897 N.ar    1  LIG1       -0.2085
     36 H          -6.9323    5.6907   -1.1432 H       1  LIG1        0.0663
     37 O          -9.9792    3.2288    1.0869 O.3     1  LIG1       -0.4792
     38 C         -11.3005    3.2164    1.6205 C.3     1  LIG1        0.0804
     39 H         -11.3804    2.2771    2.1604 H       1  LIG1        0.0660
     40 H         -11.4473    4.0675    2.2854 H       1  LIG1        0.0660
     41 H         -12.0313    3.2650    0.8138 H       1  LIG1        0.0660
     42 O          -8.4338    7.7631   -1.4693 O.3     1  LIG1       -0.5046
     43 H          -9.0940    8.4576   -1.3482 H       1  LIG1        0.2922
     44 C         -11.7776    8.0655    0.6765 C.ar    1  LIG1        0.2242
     45 C         -11.1428    7.5187   -0.4651 C.ar    1  LIG1        0.0690
     46 C         -11.5154    8.0141   -1.7015 C.ar    1  LIG1       -0.0043
     47 C         -12.4946    9.0124   -1.7815 C.ar    1  LIG1        0.1357
     48 C         -13.0568    9.4668   -0.6034 C.ar    1  LIG1        0.0728
     49 N         -12.6989    8.9981    0.5987 N.ar    1  LIG1       -0.2171
     50 H         -11.0790    7.6259   -2.6146 H       1  LIG1        0.0663
     51 H         -13.8235   10.2349   -0.6133 H       1  LIG1        0.0868
     52 O         -11.3968    7.6095    1.8781 O.3     1  LIG1       -0.4792
     53 C         -12.0390    8.1833    3.0123 C.3     1  LIG1        0.0804
     54 H         -11.5925    7.6909    3.8713 H       1  LIG1        0.0660
     55 H         -11.8623    9.2582    3.0443 H       1  LIG1        0.0660
     56 H         -13.1119    7.9979    2.9717 H       1  LIG1        0.0660
     57 O         -12.8381    9.4743   -3.0150 O.3     1  LIG1       -0.5052
     58 H         -13.5542   10.1158   -2.9532 H       1  LIG1        0.2922
@<TRIPOS>BOND
     1    11    10    1
     2    13    10    1
     3    10    12    1
     4    10     9    1
     5    57    58    1
     6    57    47    1
     7    50    46    1
     8    27    24    1
     9     9     1    1
    10    47    46   ar
    11    47    48   ar
    12    46    45   ar
    13    42    43    1
    14    42    33    1
    15    25    24    1
    16    24    23    1
    17    24    26    1
    18    36    32    1
    19    33    32   ar
    20    33    34   ar
    21     6     1   ar
    22     6     5   ar
    23     1     2   ar
    24    32    31   ar
    25    23    16    1
    26    51    48    1
    27    48    49   ar
    28    45    34    1
    29    45    44   ar
    30    21    16   ar
    31    21    20   ar
    32    34    35   ar
    33    16    17   ar
    34    31    20    1
    35    31    30   ar
    36    20    19   ar
    37    17     5    1
    38    17    18   ar
    39    35    30   ar
    40     5     4   ar
    41    30    37    1
    42     8     2    1
    43     2     3   ar
    44    49    44   ar
    45    19    18   ar
    46    19    28    1
    47    44    52    1
    48    18    22    1
    49    41    38    1
    50    37    38    1
    51    28    29    1
    52     4     3   ar
    53     4    14    1
    54    38    39    1
    55    38    40    1
    56     3     7    1
    57    52    53    1
    58    15    14    1
    59    56    53    1
    60    53    55    1
    61    53    54    1
