@<TRIPOS>MOLECULE
mol_data/opt/m06hf/geoms/mol2/6lf6lf.out
 30 31 0 0 0
SMALL
GASTEIGER

@<TRIPOS>ATOM
      1 C          -4.5227   -2.0338   -0.3836 C.ar    1  LIG1        0.2152
      2 C          -3.2629   -2.1079    0.2417 C.ar    1  LIG1        0.0035
      3 C          -2.7525   -0.9579    0.7957 C.ar    1  LIG1       -0.0130
      4 C          -3.4929    0.2304    0.7137 C.ar    1  LIG1        0.1431
      5 C          -4.7186    0.1981    0.0644 C.ar    1  LIG1        0.1212
      6 N          -5.2176   -0.9262   -0.4712 N.ar    1  LIG1       -0.2090
      7 H          -1.7963   -0.9391    1.3009 H       1  LIG1        0.0656
      8 H          -2.7423   -3.0534    0.2754 H       1  LIG1        0.0672
      9 O          -5.0166   -3.1703   -0.9128 O.3     1  LIG1       -0.4796
     10 C          -6.3074   -3.0759   -1.5062 C.3     1  LIG1        0.0804
     11 H          -6.5433   -4.0821   -1.8415 H       1  LIG1        0.0660
     12 H          -7.0347   -2.7252   -0.7736 H       1  LIG1        0.0660
     13 H          -6.2877   -2.3815   -2.3460 H       1  LIG1        0.0660
     14 O          -2.9706    1.3529    1.2804 O.3     1  LIG1       -0.5046
     15 H          -3.6408    2.0471    1.3059 H       1  LIG1        0.2922
     16 C          -6.8512    1.5150    0.4401 C.ar    1  LIG1        0.2242
     17 C          -5.5306    1.4436   -0.0686 C.ar    1  LIG1        0.0690
     18 C          -5.0294    2.5683   -0.6976 C.ar    1  LIG1       -0.0043
     19 C          -5.8294    3.7121   -0.8159 C.ar    1  LIG1        0.1357
     20 C          -7.1074    3.6678   -0.2929 C.ar    1  LIG1        0.0728
     21 N          -7.6014    2.5870    0.3246 N.ar    1  LIG1       -0.2171
     22 H          -4.0319    2.5717   -1.1215 H       1  LIG1        0.0663
     23 H          -7.7679    4.5258   -0.3658 H       1  LIG1        0.0868
     24 O          -7.3303    0.4369    1.0755 O.3     1  LIG1       -0.4792
     25 C          -8.6593    0.5276    1.5783 C.3     1  LIG1        0.0804
     26 H          -8.8561   -0.4378    2.0353 H       1  LIG1        0.0660
     27 H          -8.7324    1.3289    2.3133 H       1  LIG1        0.0660
     28 H          -9.3575    0.7239    0.7648 H       1  LIG1        0.0660
     29 O          -5.3041    4.7993   -1.4466 O.3     1  LIG1       -0.5052
     30 H          -5.9436    5.5190   -1.4727 H       1  LIG1        0.2922
@<TRIPOS>BOND
     1    13    10    1
     2    11    10    1
     3    10     9    1
     4    10    12    1
     5    30    29    1
     6    29    19    1
     7    22    18    1
     8     9     1    1
     9    19    18   ar
    10    19    20   ar
    11    18    17   ar
    12     6     1   ar
    13     6     5   ar
    14     1     2   ar
    15    23    20    1
    16    20    21   ar
    17    17     5    1
    18    17    16   ar
    19     5     4   ar
    20     2     8    1
    21     2     3   ar
    22    21    16   ar
    23    16    24    1
    24     4     3   ar
    25     4    14    1
    26    28    25    1
    27     3     7    1
    28    24    25    1
    29    14    15    1
    30    25    26    1
    31    25    27    1
