@<TRIPOS>MOLECULE
mol_data/opt/m06hf/geoms/mol2/6lf6lf6lf.out
 44 46 0 0 0
SMALL
GASTEIGER

@<TRIPOS>ATOM
      1 C          -4.2297   -1.9994   -0.6782 C.ar    1  LIG1        0.2152
      2 C          -3.2736   -2.2467    0.3257 C.ar    1  LIG1        0.0035
      3 C          -3.1068   -1.2928    1.3018 C.ar    1  LIG1       -0.0130
      4 C          -3.8814   -0.1245    1.2593 C.ar    1  LIG1        0.1431
      5 C          -4.7858    0.0280    0.2179 C.ar    1  LIG1        0.1212
      6 N          -4.9501   -0.9060   -0.7308 N.ar    1  LIG1       -0.2090
      7 H          -2.4007   -1.4164    2.1117 H       1  LIG1        0.0656
      8 H          -2.7108   -3.1684    0.3061 H       1  LIG1        0.0672
      9 O          -4.3944   -2.9488   -1.6205 O.3     1  LIG1       -0.4796
     10 C          -5.3854   -2.6851   -2.6080 C.3     1  LIG1        0.0804
     11 H          -5.3966   -3.5642   -3.2464 H       1  LIG1        0.0660
     12 H          -6.3559   -2.5299   -2.1363 H       1  LIG1        0.0660
     13 H          -5.1228   -1.7940   -3.1784 H       1  LIG1        0.0660
     14 O          -3.7049    0.7982    2.2451 O.3     1  LIG1       -0.5046
     15 H          -4.4129    1.4538    2.2090 H       1  LIG1        0.2922
     16 C          -7.0343    1.1875    0.0736 C.ar    1  LIG1        0.2248
     17 C          -5.6197    1.2611    0.1196 C.ar    1  LIG1        0.0690
     18 C          -5.0520    2.5207    0.0739 C.ar    1  LIG1       -0.0036
     19 C          -5.8699    3.6538   -0.0282 C.ar    1  LIG1        0.1438
     20 C          -7.2425    3.4648   -0.0986 C.ar    1  LIG1        0.1213
     21 N          -7.7978    2.2465   -0.0422 N.ar    1  LIG1       -0.2085
     22 H          -3.9764    2.6502    0.1021 H       1  LIG1        0.0663
     23 O          -7.6021   -0.0231    0.1697 O.3     1  LIG1       -0.4792
     24 C          -9.0261   -0.0529    0.1722 C.3     1  LIG1        0.0804
     25 H          -9.2882   -1.0973    0.3166 H       1  LIG1        0.0660
     26 H          -9.4151    0.5666    0.9805 H       1  LIG1        0.0660
     27 H          -9.4121    0.3179   -0.7770 H       1  LIG1        0.0660
     28 O          -5.2737    4.8763   -0.0597 O.3     1  LIG1       -0.5046
     29 H          -5.9389    5.5680    0.0476 H       1  LIG1        0.2922
     30 C          -9.2047    4.8655    0.6797 C.ar    1  LIG1        0.2242
     31 C          -8.1599    4.6315   -0.2480 C.ar    1  LIG1        0.0690
     32 C          -8.0361    5.5149   -1.3047 C.ar    1  LIG1       -0.0043
     33 C          -8.9378    6.5794   -1.4278 C.ar    1  LIG1        0.1357
     34 C          -9.9316    6.7030   -0.4756 C.ar    1  LIG1        0.0728
     35 N         -10.0548    5.8588    0.5569 N.ar    1  LIG1       -0.2171
     36 H          -7.2678    5.3813   -2.0577 H       1  LIG1        0.0663
     37 H         -10.6609    7.5046   -0.5335 H       1  LIG1        0.0868
     38 O          -9.3023    4.0357    1.7278 O.3     1  LIG1       -0.4792
     39 C         -10.3698    4.2763    2.6394 C.3     1  LIG1        0.0804
     40 H         -10.2695    3.5106    3.4032 H       1  LIG1        0.0660
     41 H         -10.2808    5.2722    3.0725 H       1  LIG1        0.0660
     42 H         -11.3285    4.1928    2.1279 H       1  LIG1        0.0660
     43 O          -8.7854    7.4261   -2.4831 O.3     1  LIG1       -0.5052
     44 H          -9.5012    8.0700   -2.5127 H       1  LIG1        0.2922
@<TRIPOS>BOND
     1    11    10    1
     2    13    10    1
     3    10    12    1
     4    10     9    1
     5    44    43    1
     6    43    33    1
     7    36    32    1
     8     9     1    1
     9    33    32   ar
    10    33    34   ar
    11    32    31   ar
    12    27    24    1
    13     6     1   ar
    14     6     5   ar
    15     1     2   ar
    16    37    34    1
    17    34    35   ar
    18    31    20    1
    19    31    30   ar
    20    20    21   ar
    21    20    19   ar
    22    28    19    1
    23    28    29    1
    24    21    16   ar
    25    19    18   ar
    26    16    17   ar
    27    16    23    1
    28    18    22    1
    29    18    17   ar
    30    17     5    1
    31    23    24    1
    32    24    25    1
    33    24    26    1
    34     5     4   ar
    35     8     2    1
    36     2     3   ar
    37    35    30   ar
    38    30    38    1
    39     4     3   ar
    40     4    14    1
    41     3     7    1
    42    38    39    1
    43    42    39    1
    44    15    14    1
    45    39    41    1
    46    39    40    1
