@<TRIPOS>MOLECULE
mol_data/opt/m06hf/geoms/mol2/6lg.out
 16 16 0 0 0
SMALL
GASTEIGER

@<TRIPOS>ATOM
      1 C          -4.6405   -1.9482    0.0000 C.ar    1  LIG1        0.2144
      2 C          -3.2353   -2.0117   -0.0000 C.ar    1  LIG1        0.0010
      3 C          -2.5391   -0.8243   -0.0002 C.ar    1  LIG1       -0.0421
      4 C          -3.2412    0.3921   -0.0002 C.ar    1  LIG1        0.0231
      5 C          -4.6248    0.3329   -0.0002 C.ar    1  LIG1        0.0445
      6 N          -5.3110   -0.8161   -0.0001 N.ar    1  LIG1       -0.2202
      7 H          -1.4558   -0.8262   -0.0002 H       1  LIG1        0.0631
      8 H          -2.7481   -2.9753    0.0000 H       1  LIG1        0.0671
      9 H          -5.2208    1.2383   -0.0002 H       1  LIG1        0.0842
     10 O          -5.3074   -3.1135    0.0001 O.3     1  LIG1       -0.4796
     11 C          -6.7304   -3.0391    0.0002 C.3     1  LIG1        0.0804
     12 H          -7.0696   -4.0711    0.0003 H       1  LIG1        0.0660
     13 H          -7.0810   -2.5142    0.8885 H       1  LIG1        0.0660
     14 H          -7.0811   -2.5144   -0.8881 H       1  LIG1        0.0660
     15 S          -2.3153    1.9104   -0.0004 S.3     1  LIG1       -0.1411
     16 H          -3.3747    2.7264   -0.0004 H       1  LIG1        0.1072
@<TRIPOS>BOND
     1    14    11    1
     2    16    15    1
     3    15     4    1
     4     4     5   ar
     5     4     3   ar
     6     9     5    1
     7     7     3    1
     8     5     6   ar
     9     3     2   ar
    10     6     1   ar
    11     2     1   ar
    12     2     8    1
    13     1    10    1
    14    10    11    1
    15    11    12    1
    16    11    13    1
