@<TRIPOS>MOLECULE
mol_data/opt/m06hf/geoms/mol2/6lh13dd-6fa6hd.out
 49 52 0 0 0
SMALL
GASTEIGER

@<TRIPOS>ATOM
      1 C          -4.7641   -1.8589   -0.9051 C.ar    1  LIG1        0.2151
      2 C          -3.4334   -2.2322   -0.6145 C.ar    1  LIG1        0.0017
      3 C          -2.6143   -1.2838   -0.0701 C.ar    1  LIG1       -0.0339
      4 C          -3.0741    0.0352    0.1939 C.ar    1  LIG1        0.0526
      5 C          -4.3929    0.3001   -0.1712 C.ar    1  LIG1        0.1127
      6 N          -5.2045   -0.6516   -0.6924 N.ar    1  LIG1       -0.2095
      7 H          -1.5909   -1.5320    0.1843 H       1  LIG1        0.0638
      8 H          -3.1068   -3.2413   -0.8189 H       1  LIG1        0.0671
      9 O          -5.5762   -2.8022   -1.4122 O.3     1  LIG1       -0.4796
     10 C          -6.9247   -2.4228   -1.6617 C.3     1  LIG1        0.0804
     11 H          -7.3982   -3.3019   -2.0883 H       1  LIG1        0.0660
     12 H          -7.4168   -2.1408   -0.7290 H       1  LIG1        0.0660
     13 H          -6.9597   -1.5872   -2.3613 H       1  LIG1        0.0660
     14 N          -2.2397    0.9077    0.8581 N.pl3   1  LIG1       -0.3563
     15 H          -1.2816    0.6054    0.9508 H       1  LIG1        0.1424
     16 H          -2.3210    1.8999    0.7027 H       1  LIG1        0.1424
     17 C          -5.1250    1.5739    0.0295 C.ar    1  LIG1        0.0862
     18 C          -4.8300    2.9202    0.1953 C.ar    1  LIG1        0.0965
     19 C          -6.0709    3.6202    0.3187 C.ar    1  LIG1        0.0951
     20 C          -7.0854    2.6910    0.2041 C.ar    1  LIG1        0.0709
     21 N          -6.4826    1.4812    0.0382 N.ar    1  LIG1       -0.3507
     22 H          -6.9329    0.5987   -0.1915 H       1  LIG1        0.1660
     23 N          -2.5296    4.0831    0.1094 N.1     1  LIG1       -0.1908
     24 C          -3.5558    3.5676    0.1534 C.1     1  LIG1        0.1026
     25 N          -6.4016    6.1530    0.6786 N.1     1  LIG1       -0.1908
     26 C          -6.2415    5.0269    0.5243 C.1     1  LIG1        0.1026
     27 C          -9.3879    1.8714    0.7494 C.ar    1  LIG1        0.2222
     28 C          -8.5471    2.8551    0.2055 C.ar    1  LIG1        0.0610
     29 C          -9.1670    3.9828   -0.3318 C.ar    1  LIG1       -0.0455
     30 C         -10.5495    4.0712   -0.3510 C.ar    1  LIG1       -0.0347
     31 C         -11.3011    2.9952    0.1373 C.ar    1  LIG1        0.0781
     32 N         -10.7001    1.9365    0.6936 N.ar    1  LIG1       -0.2124
     33 H          -8.5620    4.7868   -0.7316 H       1  LIG1        0.0626
     34 O          -8.8946    0.7604    1.3523 O.3     1  LIG1       -0.4919
     35 H          -8.0373    0.9469    1.7566 H       1  LIG1        0.2937
     36 H         -11.0275    4.9628   -0.7268 H       1  LIG1        0.0639
     37 C         -13.5973    2.1735    0.9291 C.ar    1  LIG1        0.1254
     38 C         -12.7850    2.9909    0.0764 C.ar    1  LIG1        0.0412
     39 C         -13.4477    3.8046   -0.8286 C.ar    1  LIG1       -0.0304
     40 C         -14.8402    3.8548   -0.8538 C.ar    1  LIG1        0.0706
     41 C         -15.5382    3.0622    0.0626 C.ar    1  LIG1        0.0471
     42 N         -14.9426    2.2536    0.9124 N.ar    1  LIG1       -0.2388
     43 H         -12.8919    4.4005   -1.5404 H       1  LIG1        0.0638
     44 H         -16.6214    3.0888    0.0888 H       1  LIG1        0.0843
     45 N         -13.0850    1.2968    1.8005 N.pl3   1  LIG1       -0.3426
     46 H         -13.7428    0.7626    2.3453 H       1  LIG1        0.1437
     47 H         -12.0959    1.0835    1.7710 H       1  LIG1        0.1437
     48 N         -16.1026    5.3735   -2.5277 N.1     1  LIG1       -0.1908
     49 C         -15.5435    4.6976   -1.7865 C.1     1  LIG1        0.1007
@<TRIPOS>BOND
     1    48    49    3
     2    13    10    1
     3    11    10    1
     4    49    40    1
     5    10     9    1
     6    10    12    1
     7    43    39    1
     8     9     1    1
     9     1     6   ar
    10     1     2   ar
    11    40    39   ar
    12    40    41   ar
    13    39    38   ar
    14     8     2    1
    15    33    29    1
    16    36    30    1
    17     6     5   ar
    18     2     3   ar
    19    30    29   ar
    20    30    31   ar
    21    29    28   ar
    22    22    21    1
    23     5    17    1
    24     5     4   ar
    25     3     7    1
    26     3     4   ar
    27    17    21   ar
    28    17    18   ar
    29    21    20   ar
    30    41    44    1
    31    41    42   ar
    32    38    31    1
    33    38    37   ar
    34    23    24    3
    35    31    32   ar
    36    24    18    1
    37     4    14    1
    38    18    19   ar
    39    20    28    1
    40    20    19   ar
    41    28    27   ar
    42    19    26    1
    43    26    25    3
    44    32    27   ar
    45    16    14    1
    46    27    34    1
    47    14    15    1
    48    42    37   ar
    49    37    45    1
    50    34    35    1
    51    47    45    1
    52    45    46    1
