@<TRIPOS>MOLECULE
mol_data/opt/m06hf/geoms/mol2/6lh6lh6lh.out
 47 49 0 0 0
SMALL
GASTEIGER

@<TRIPOS>ATOM
      1 C          -4.2042   -1.9358    0.8038 C.ar    1  LIG1        0.2151
      2 C          -3.1490   -2.1917   -0.0872 C.ar    1  LIG1        0.0017
      3 C          -2.8843   -1.2458   -1.0512 C.ar    1  LIG1       -0.0339
      4 C          -3.6598   -0.0758   -1.1295 C.ar    1  LIG1        0.0513
      5 C          -4.6700    0.0789   -0.1800 C.ar    1  LIG1        0.1005
      6 N          -4.9226   -0.8406    0.7613 N.ar    1  LIG1       -0.2109
      7 H          -2.0811   -1.3999   -1.7623 H       1  LIG1        0.0638
      8 H          -2.5847   -3.1086    0.0017 H       1  LIG1        0.0671
      9 O          -4.4768   -2.8713    1.7367 O.3     1  LIG1       -0.4796
     10 C          -5.5788   -2.5915    2.5945 C.3     1  LIG1        0.0804
     11 H          -5.6883   -3.4738    3.2195 H       1  LIG1        0.0660
     12 H          -5.3711   -1.7100    3.2012 H       1  LIG1        0.0660
     13 H          -6.4787   -2.4100    2.0061 H       1  LIG1        0.0660
     14 N          -3.3897    0.9052   -2.1003 N.pl3   1  LIG1       -0.3563
     15 H          -2.9342    0.5307   -2.9226 H       1  LIG1        0.1424
     16 H          -4.2111    1.4414   -2.3564 H       1  LIG1        0.1424
     17 C          -6.9330    1.2223   -0.1416 C.ar    1  LIG1        0.2246
     18 C          -5.5227    1.3027   -0.1570 C.ar    1  LIG1        0.0655
     19 C          -4.9668    2.5687   -0.1271 C.ar    1  LIG1       -0.0246
     20 C          -5.7774    3.7131   -0.0741 C.ar    1  LIG1        0.0519
     21 C          -7.1565    3.5070   -0.0302 C.ar    1  LIG1        0.1005
     22 N          -7.6987    2.2839   -0.0668 N.ar    1  LIG1       -0.2103
     23 H          -3.8866    2.6697   -0.1498 H       1  LIG1        0.0645
     24 O          -7.5063    0.0098   -0.2323 O.3     1  LIG1       -0.4792
     25 C          -8.9302   -0.0090   -0.2350 C.3     1  LIG1        0.0804
     26 H          -9.2015   -1.0513   -0.3793 H       1  LIG1        0.0660
     27 H          -9.3137    0.3647    0.7144 H       1  LIG1        0.0660
     28 H          -9.3163    0.6163   -1.0409 H       1  LIG1        0.0660
     29 N          -5.2102    4.9981   -0.0150 N.pl3   1  LIG1       -0.3563
     30 H          -4.2649    5.0306   -0.3745 H       1  LIG1        0.1424
     31 H          -5.7898    5.7093   -0.4456 H       1  LIG1        0.1424
     32 C          -9.2106    4.7862   -0.7895 C.ar    1  LIG1        0.2240
     33 C          -8.1054    4.6529    0.0800 C.ar    1  LIG1        0.0655
     34 C          -7.9542    5.6108    1.0677 C.ar    1  LIG1       -0.0252
     35 C          -8.8774    6.6597    1.1919 C.ar    1  LIG1        0.0438
     36 C          -9.9314    6.6733    0.2886 C.ar    1  LIG1        0.0520
     37 N         -10.0860    5.7607   -0.6761 N.ar    1  LIG1       -0.2189
     38 H          -7.1156    5.5344    1.7519 H       1  LIG1        0.0645
     39 H         -10.6879    7.4486    0.3415 H       1  LIG1        0.0849
     40 O          -9.3507    3.8891   -1.7822 O.3     1  LIG1       -0.4792
     41 C         -10.4951    4.0351   -2.6136 C.3     1  LIG1        0.0804
     42 H         -10.4323    3.2215   -3.3312 H       1  LIG1        0.0660
     43 H         -11.4067    3.9600   -2.0208 H       1  LIG1        0.0660
     44 H         -10.4798    5.0006   -3.1191 H       1  LIG1        0.0660
     45 N          -8.7737    7.6042    2.2232 N.pl3   1  LIG1       -0.3568
     46 H          -7.8269    7.7685    2.5366 H       1  LIG1        0.1424
     47 H          -9.2520    8.4750    2.0338 H       1  LIG1        0.1424
@<TRIPOS>BOND
     1    42    41    1
     2    44    41    1
     3    15    14    1
     4    41    43    1
     5    41    40    1
     6    16    14    1
     7    14     4    1
     8    40    32    1
     9     7     3    1
    10     4     3   ar
    11     4     5   ar
    12     3     2   ar
    13    28    25    1
    14    32    37   ar
    15    32    33   ar
    16    37    36   ar
    17    31    29    1
    18    26    25    1
    19    30    29    1
    20    25    24    1
    21    25    27    1
    22    24    17    1
    23     5    18    1
    24     5     6   ar
    25    18    17   ar
    26    18    19   ar
    27    23    19    1
    28    17    22   ar
    29    19    20   ar
    30     2     8    1
    31     2     1   ar
    32    20    21   ar
    33    20    29    1
    34    22    21   ar
    35    21    33    1
    36    33    34   ar
    37    36    39    1
    38    36    35   ar
    39     6     1   ar
    40     1     9    1
    41    34    35   ar
    42    34    38    1
    43    35    45    1
    44     9    10    1
    45    13    10    1
    46    47    45    1
    47    45    46    1
    48    10    12    1
    49    10    11    1
