@<TRIPOS>MOLECULE
mol_data/opt/m06hf/geoms/mol2/6lh6lh6lh6lh.out
 62 65 0 0 0
SMALL
GASTEIGER

@<TRIPOS>ATOM
      1 C          -3.7187   -1.7159    1.0466 C.ar    1  LIG1        0.2151
      2 C          -3.0475   -2.2502   -0.0658 C.ar    1  LIG1        0.0017
      3 C          -3.2294   -1.6295   -1.2803 C.ar    1  LIG1       -0.0339
      4 C          -4.0682   -0.5054   -1.3833 C.ar    1  LIG1        0.0513
      5 C          -4.6682   -0.0541   -0.2086 C.ar    1  LIG1        0.1005
      6 N          -4.4873   -0.6569    0.9745 N.ar    1  LIG1       -0.2109
      7 H          -2.7324   -2.0044   -2.1674 H       1  LIG1        0.0638
      8 H          -2.4200   -3.1207    0.0573 H       1  LIG1        0.0671
      9 O          -3.5516   -2.3354    2.2334 O.3     1  LIG1       -0.4796
     10 C          -4.2730   -1.7852    3.3304 C.3     1  LIG1        0.0804
     11 H          -4.0629   -2.4411    4.1710 H       1  LIG1        0.0660
     12 H          -3.9323   -0.7704    3.5360 H       1  LIG1        0.0660
     13 H          -5.3399   -1.7612    3.1070 H       1  LIG1        0.0660
     14 N          -4.2479    0.1495   -2.6142 N.pl3   1  LIG1       -0.3563
     15 H          -4.1428   -0.4681   -3.4090 H       1  LIG1        0.1424
     16 H          -5.1247    0.6558   -2.6638 H       1  LIG1        0.1424
     17 C          -6.8706    1.1064    0.2716 C.ar    1  LIG1        0.2246
     18 C          -5.5467    1.1519   -0.2170 C.ar    1  LIG1        0.0655
     19 C          -5.0972    2.3674   -0.6994 C.ar    1  LIG1       -0.0246
     20 C          -5.9267    3.4995   -0.6912 C.ar    1  LIG1        0.0519
     21 C          -7.2065    3.3372   -0.1605 C.ar    1  LIG1        0.1005
     22 N          -7.6480    2.1617    0.3019 N.ar    1  LIG1       -0.2103
     23 H          -4.0883    2.4373   -1.0932 H       1  LIG1        0.0645
     24 O          -7.3540   -0.0741    0.6957 O.3     1  LIG1       -0.4792
     25 C          -8.7114   -0.0739    1.1261 C.3     1  LIG1        0.0804
     26 H          -8.9393   -1.1122    1.3520 H       1  LIG1        0.0660
     27 H          -8.8257    0.5503    2.0123 H       1  LIG1        0.0660
     28 H          -9.3591    0.3117    0.3378 H       1  LIG1        0.0660
     29 N          -5.4600    4.7413   -1.1552 N.pl3   1  LIG1       -0.3563
     30 H          -4.6921    4.6563   -1.8088 H       1  LIG1        0.1424
     31 H          -6.1964    5.3274   -1.5308 H       1  LIG1        0.1424
     32 C          -9.4663    4.3978   -0.5993 C.ar    1  LIG1        0.2246
     33 C          -8.1569    4.4835   -0.0759 C.ar    1  LIG1        0.0655
     34 C          -7.8019    5.6709    0.5369 C.ar    1  LIG1       -0.0246
     35 C          -8.7154    6.7316    0.6389 C.ar    1  LIG1        0.0519
     36 C          -9.9878    6.5195    0.1093 C.ar    1  LIG1        0.1005
     37 N         -10.3334    5.3752   -0.4932 N.ar    1  LIG1       -0.2103
     38 H          -6.8008    5.7767    0.9420 H       1  LIG1        0.0645
     39 O          -9.8223    3.2772   -1.2526 O.3     1  LIG1       -0.4792
     40 C         -11.1410    3.2613   -1.7895 C.3     1  LIG1        0.0804
     41 H         -11.2206    2.3176   -2.3227 H       1  LIG1        0.0660
     42 H         -11.8755    3.3166   -0.9864 H       1  LIG1        0.0660
     43 H         -11.2880    4.1083   -2.4603 H       1  LIG1        0.0660
     44 N          -8.3660    7.9246    1.2924 N.pl3   1  LIG1       -0.3563
     45 H          -7.3695    8.0994    1.2970 H       1  LIG1        0.1424
     46 H          -8.8797    8.7296    0.9538 H       1  LIG1        0.1424
     47 C         -11.7270    8.0323   -0.9414 C.ar    1  LIG1        0.2240
     48 C         -11.0423    7.5705    0.2034 C.ar    1  LIG1        0.0655
     49 C         -11.4031    8.1139    1.4242 C.ar    1  LIG1       -0.0252
     50 C         -12.4188    9.0786    1.5027 C.ar    1  LIG1        0.0438
     51 C         -13.0273    9.4418    0.3083 C.ar    1  LIG1        0.0520
     52 N         -12.6831    8.9325   -0.8785 N.ar    1  LIG1       -0.2189
     53 H         -10.8952    7.7783    2.3224 H       1  LIG1        0.0645
     54 H         -13.8282   10.1729    0.3029 H       1  LIG1        0.0849
     55 O         -11.3630    7.5405   -2.1401 O.3     1  LIG1       -0.4792
     56 C         -12.0774    8.0320   -3.2672 C.3     1  LIG1        0.0804
     57 H         -11.6474    7.5203   -4.1241 H       1  LIG1        0.0660
     58 H         -13.1388    7.8041   -3.1720 H       1  LIG1        0.0660
     59 H         -11.9532    9.1113   -3.3569 H       1  LIG1        0.0660
     60 N         -12.8397    9.5998    2.7344 N.pl3   1  LIG1       -0.3568
     61 H         -12.1265    9.5926    3.4508 H       1  LIG1        0.1424
     62 H         -13.2830   10.5064    2.6691 H       1  LIG1        0.1424
@<TRIPOS>BOND
     1    57    56    1
     2    15    14    1
     3    59    56    1
     4    56    58    1
     5    56    55    1
     6    16    14    1
     7    14     4    1
     8    43    40    1
     9    41    40    1
    10     7     3    1
    11    55    47    1
    12    30    29    1
    13    40    39    1
    14    40    42    1
    15    31    29    1
    16     4     3   ar
    17     4     5   ar
    18     3     2   ar
    19    39    32    1
    20    29    20    1
    21    23    19    1
    22    47    52   ar
    23    47    48   ar
    24    52    51   ar
    25    19    20   ar
    26    19    18   ar
    27    20    21   ar
    28    32    37   ar
    29    32    33   ar
    30    37    36   ar
    31    18     5    1
    32    18    17   ar
    33     5     6   ar
    34    21    33    1
    35    21    22   ar
    36    33    34   ar
    37     2     8    1
    38     2     1   ar
    39    36    48    1
    40    36    35   ar
    41    48    49   ar
    42    17    22   ar
    43    17    24    1
    44    54    51    1
    45    51    50   ar
    46    28    25    1
    47    34    35   ar
    48    34    38    1
    49    35    44    1
    50    24    25    1
    51    46    44    1
    52     6     1   ar
    53     1     9    1
    54    25    26    1
    55    25    27    1
    56    44    45    1
    57    49    50   ar
    58    49    53    1
    59    50    60    1
    60     9    10    1
    61    62    60    1
    62    60    61    1
    63    13    10    1
    64    10    12    1
    65    10    11    1
