@<TRIPOS>MOLECULE
mol_data/opt/m06hf/geoms/mol2/6lh6lh.out
 32 33 0 0 0
SMALL
GASTEIGER

@<TRIPOS>ATOM
      1 C          -4.5107   -2.0179    0.4266 C.ar    1  LIG1        0.2151
      2 C          -3.2345   -2.1204   -0.1526 C.ar    1  LIG1        0.0017
      3 C          -2.6967   -0.9870   -0.7166 C.ar    1  LIG1       -0.0339
      4 C          -3.4185    0.2204   -0.7096 C.ar    1  LIG1        0.0513
      5 C          -4.6698    0.2053   -0.0959 C.ar    1  LIG1        0.1005
      6 N          -5.1906   -0.8986    0.4587 N.ar    1  LIG1       -0.2109
      7 H          -1.7142   -1.0162   -1.1731 H       1  LIG1        0.0638
      8 H          -2.7178   -3.0687   -0.1430 H       1  LIG1        0.0671
      9 O          -5.0409   -3.1336    0.9689 O.3     1  LIG1       -0.4796
     10 C          -6.3504   -3.0009    1.5121 C.3     1  LIG1        0.0804
     11 H          -6.6228   -3.9965    1.8517 H       1  LIG1        0.0660
     12 H          -6.3459   -2.2954    2.3431 H       1  LIG1        0.0660
     13 H          -7.0414   -2.6422    0.7486 H       1  LIG1        0.0660
     14 N          -2.8673    1.3900   -1.2608 N.pl3   1  LIG1       -0.3563
     15 H          -2.2044    1.2020   -2.0018 H       1  LIG1        0.1424
     16 H          -3.5700    2.0539   -1.5641 H       1  LIG1        0.1424
     17 C          -6.8244    1.4750   -0.4934 C.ar    1  LIG1        0.2240
     18 C          -5.4967    1.4452   -0.0125 C.ar    1  LIG1        0.0655
     19 C          -5.0019    2.6023    0.5622 C.ar    1  LIG1       -0.0252
     20 C          -5.8050    3.7492    0.6605 C.ar    1  LIG1        0.0438
     21 C          -7.0973    3.6501    0.1638 C.ar    1  LIG1        0.0520
     22 N          -7.5873    2.5414   -0.4006 N.ar    1  LIG1       -0.2189
     23 H          -3.9871    2.6095    0.9460 H       1  LIG1        0.0645
     24 H          -7.7723    4.4968    0.2216 H       1  LIG1        0.0849
     25 O          -7.3057    0.3677   -1.0856 O.3     1  LIG1       -0.4792
     26 C          -8.6533    0.4225   -1.5367 C.3     1  LIG1        0.0804
     27 H          -8.8545   -0.5608   -1.9526 H       1  LIG1        0.0660
     28 H          -9.3229    0.6375   -0.7039 H       1  LIG1        0.0660
     29 H          -8.7709    1.1965   -2.2952 H       1  LIG1        0.0660
     30 N          -5.3409    4.9126    1.2930 N.pl3   1  LIG1       -0.3568
     31 H          -4.3414    5.0478    1.2190 H       1  LIG1        0.1424
     32 H          -5.8424    5.7504    1.0295 H       1  LIG1        0.1424
@<TRIPOS>BOND
     1    29    26    1
     2    15    14    1
     3    27    26    1
     4    16    14    1
     5    26    25    1
     6    26    28    1
     7    14     4    1
     8     7     3    1
     9    25    17    1
    10     3     4   ar
    11     3     2   ar
    12     4     5   ar
    13    17    22   ar
    14    17    18   ar
    15    22    21   ar
    16     2     8    1
    17     2     1   ar
    18     5    18    1
    19     5     6   ar
    20    18    19   ar
    21    21    24    1
    22    21    20   ar
    23     1     6   ar
    24     1     9    1
    25    19    20   ar
    26    19    23    1
    27    20    30    1
    28    13    10    1
    29     9    10    1
    30    32    30    1
    31    31    30    1
    32    10    11    1
    33    10    12    1
