@<TRIPOS>MOLECULE
mol_data/opt/m06hf/geoms/mol2/6li12ai-13fi12ed-.out
 50 53 0 0 0
SMALL
GASTEIGER

@<TRIPOS>ATOM
      1 C          -4.8381   -2.0553   -0.3189 C.ar    1  LIG1        0.2151
      2 C          -3.4539   -2.2517   -0.1904 C.ar    1  LIG1        0.0003
      3 C          -2.6795   -1.1265   -0.0147 C.ar    1  LIG1       -0.0517
      4 C          -3.2513    0.1546    0.0277 C.ar    1  LIG1       -0.0212
      5 C          -4.6372    0.2179   -0.1192 C.ar    1  LIG1        0.1127
      6 N          -5.4056   -0.8729   -0.2843 N.ar    1  LIG1       -0.2095
      7 H          -1.6063   -1.2258    0.0993 H       1  LIG1        0.0622
      8 H          -3.0477   -3.2512   -0.2270 H       1  LIG1        0.0671
      9 O          -5.6037   -3.1484   -0.4859 O.3     1  LIG1       -0.4796
     10 C          -7.0042   -2.9337   -0.6187 C.3     1  LIG1        0.0804
     11 H          -7.4341   -3.9211   -0.7614 H       1  LIG1        0.0660
     12 H          -7.4009   -2.4652    0.2826 H       1  LIG1        0.0660
     13 H          -7.2094   -2.2931   -1.4763 H       1  LIG1        0.0660
     14 C          -2.3774    1.3725    0.2369 C.3     1  LIG1       -0.0376
     15 H          -2.7636    1.9878    1.0515 H       1  LIG1        0.0278
     16 H          -2.3308    1.9788   -0.6706 H       1  LIG1        0.0278
     17 H          -1.3655    1.0569    0.4883 H       1  LIG1        0.0278
     18 C          -5.3912    1.4881   -0.0942 C.ar    1  LIG1        0.1545
     19 C          -5.0859    2.8168   -0.1512 C.ar    1  LIG1       -0.0107
     20 C          -6.3238    3.5472   -0.0900 C.ar    1  LIG1       -0.0025
     21 C          -7.2917    2.5898   -0.0038 C.ar    1  LIG1        0.1583
     22 O          -6.7330    1.3569   -0.0070 O.2     1  LIG1       -0.4514
     23 H          -4.1114    3.2629   -0.2406 H       1  LIG1        0.0659
     24 C          -6.4502    5.0490   -0.1192 C.3     1  LIG1       -0.0360
     25 H          -7.4809    5.3496    0.0485 H       1  LIG1        0.0279
     26 H          -6.1181    5.4298   -1.0866 H       1  LIG1        0.0279
     27 H          -5.8170    5.4835    0.6559 H       1  LIG1        0.0279
     28 C          -8.7468    2.5357    0.0939 C.ar    1  LIG1        0.1251
     29 C          -9.7712    3.4662    0.1113 C.ar    1  LIG1        0.1486
     30 C         -11.0076    2.7861    0.2354 C.ar    1  LIG1        0.0200
     31 C         -10.6897    1.4382    0.2686 C.ar    1  LIG1        0.0904
     32 N          -9.3361    1.3091    0.1991 N.ar    1  LIG1       -0.3462
     33 H          -8.8143    0.4434    0.1982 H       1  LIG1        0.1662
     34 O          -9.6154    4.8260    0.0815 O.3     1  LIG1       -0.5043
     35 H         -10.2879    5.2113   -0.4913 H       1  LIG1        0.2922
     36 C         -12.3499    3.4534    0.3881 C.3     1  LIG1       -0.0341
     37 H         -13.0360    2.8035    0.9303 H       1  LIG1        0.0279
     38 H         -12.7993    3.6795   -0.5807 H       1  LIG1        0.0279
     39 H         -12.2239    4.3796    0.9517 H       1  LIG1        0.0279
     40 C         -11.5366    0.2653    0.3846 C.ar    1  LIG1        0.1678
     41 C         -12.7904   -0.0388   -0.0665 C.ar    1  LIG1        0.0892
     42 C         -13.0471   -1.3862    0.3979 C.ar    1  LIG1        0.1054
     43 C         -11.9342   -1.7843    1.0598 C.ar    1  LIG1        0.1112
     44 O         -11.0260   -0.7966    1.0570 O.2     1  LIG1       -0.4589
     45 H         -11.6725   -2.7013    1.5566 H       1  LIG1        0.1043
     46 C         -13.6553    0.7446   -0.8903 C.1     1  LIG1       -0.0645
     47 C         -14.4045    1.3664   -1.5935 C.1     1  LIG1       -0.1138
     48 H         -15.0732    1.9078   -2.2224 H       1  LIG1        0.1232
     49 N         -15.1867   -2.7712   -0.0061 N.1     1  LIG1       -0.1907
     50 C         -14.2352   -2.1573    0.1757 C.1     1  LIG1        0.1036
@<TRIPOS>BOND
     1    48    47    1
     2    47    46    3
     3    13    10    1
     4    26    24    1
     5    46    41    1
     6    11    10    1
     7    16    14    1
     8    10     9    1
     9    10    12    1
    10    38    36    1
    11    35    34    1
    12     9     1    1
    13     1     6   ar
    14     1     2   ar
    15     6     5   ar
    16    23    19    1
    17     8     2    1
    18     2     3   ar
    19    19    18   ar
    20    19    20   ar
    21     5    18    1
    22     5     4   ar
    23    24    20    1
    24    24    25    1
    25    24    27    1
    26    18    22   ar
    27    20    21   ar
    28    41    40   ar
    29    41    42   ar
    30     3     4   ar
    31     3     7    1
    32    22    21   ar
    33    49    50    3
    34    21    28    1
    35     4    14    1
    36    34    29    1
    37    28    29   ar
    38    28    32   ar
    39    29    30   ar
    40    50    42    1
    41    33    32    1
    42    32    31   ar
    43    30    31   ar
    44    30    36    1
    45    14    17    1
    46    14    15    1
    47    31    40    1
    48    40    44   ar
    49    36    37    1
    50    36    39    1
    51    42    43   ar
    52    44    43   ar
    53    43    45    1
