@<TRIPOS>MOLECULE
mol_data/opt/m06hf/geoms/mol2/6li4ff-13fl-13hh-6ff-6ia12de13hf-.out
 99 106 0 0 0
SMALL
GASTEIGER

@<TRIPOS>ATOM
      1 C          -2.6424   -0.9655   -2.1648 C.ar    1  LIG1        0.2150
      2 C          -1.7018   -1.4805   -1.2584 C.ar    1  LIG1        0.0003
      3 C          -1.7016   -0.9487    0.0116 C.ar    1  LIG1       -0.0518
      4 C          -2.5906    0.0787    0.3719 C.ar    1  LIG1       -0.0241
      5 C          -3.4504    0.5290   -0.6261 C.ar    1  LIG1        0.0813
      6 N          -3.4840   -0.0043   -1.8614 N.ar    1  LIG1       -0.2125
      7 H          -1.0125   -1.3315    0.7556 H       1  LIG1        0.0622
      8 H          -1.0338   -2.2689   -1.5719 H       1  LIG1        0.0671
      9 O          -2.6688   -1.4995   -3.4003 O.3     1  LIG1       -0.4796
     10 C          -3.6044   -0.9400   -4.3147 C.3     1  LIG1        0.0804
     11 H          -3.4521   -1.4761   -5.2473 H       1  LIG1        0.0660
     12 H          -4.6221   -1.0805   -3.9499 H       1  LIG1        0.0660
     13 H          -3.4183    0.1257   -4.4428 H       1  LIG1        0.0660
     14 C          -2.6050    0.6088    1.7915 C.3     1  LIG1       -0.0377
     15 H          -3.5914    0.9986    2.0439 H       1  LIG1        0.0278
     16 H          -1.8818    1.4162    1.9017 H       1  LIG1        0.0278
     17 H          -2.3572   -0.1969    2.4835 H       1  LIG1        0.0278
     18 C          -4.1446    2.8597    0.1159 C.ar    1  LIG1        0.1269
     19 C          -5.1320    3.8234    0.2881 C.ar    1  LIG1       -0.0068
     20 C          -4.4664    1.6011   -0.3962 C.ar    1  LIG1        0.0456
     21 C          -6.4623    3.5774   -0.0630 C.ar    1  LIG1        0.0469
     22 H          -4.8741    4.7958    0.6903 H       1  LIG1        0.0662
     23 C          -5.7881    1.3620   -0.7673 C.ar    1  LIG1       -0.0068
     24 C          -6.7742    2.3205   -0.6024 C.ar    1  LIG1        0.1269
     25 H          -6.0298    0.3973   -1.2005 H       1  LIG1        0.0662
     26 O          -2.8402    3.1206    0.4199 O.3     1  LIG1       -0.5061
     27 H          -2.7376    4.0466    0.6632 H       1  LIG1        0.2922
     28 O          -8.0803    2.0616   -0.9600 O.3     1  LIG1       -0.5061
     29 H          -8.1475    1.1910   -1.3651 H       1  LIG1        0.2922
     30 C          -7.4641    4.6313    0.1312 C.ar    1  LIG1        0.0964
     31 C          -7.3234    5.9085    0.6486 C.ar    1  LIG1        0.1852
     32 C          -8.5851    6.5371    0.5999 C.ar    1  LIG1        0.1888
     33 C          -9.4833    5.6401    0.0508 C.ar    1  LIG1        0.1112
     34 N          -8.7892    4.5021   -0.2138 N.ar    1  LIG1       -0.3470
     35 H          -9.1371    3.6779   -0.6835 H       1  LIG1        0.1662
     36 O          -6.1897    6.4906    1.1337 O.3     1  LIG1       -0.5019
     37 H          -6.3921    7.4205    1.3012 H       1  LIG1        0.2924
     38 O          -8.8110    7.8123    1.0532 O.3     1  LIG1       -0.4895
     39 C          -9.4894    7.8546    2.3164 C.3     1  LIG1        0.0791
     40 H          -9.5651    8.9049    2.5874 H       1  LIG1        0.0660
     41 H         -10.4837    7.4171    2.2155 H       1  LIG1        0.0660
     42 H          -8.9107    7.3055    3.0608 H       1  LIG1        0.0660
     43 C         -10.9040    5.8014   -0.2178 C.ar    1  LIG1        0.0898
     44 C         -11.6052    6.9409   -0.5579 C.ar    1  LIG1        0.0733
     45 C         -12.9771    6.5686   -0.6827 C.ar    1  LIG1        0.0720
     46 C         -13.0686    5.2145   -0.4428 C.ar    1  LIG1        0.0750
     47 N         -11.7859    4.7539   -0.1796 N.ar    1  LIG1       -0.3498
     48 H         -11.6059    3.8810    0.2979 H       1  LIG1        0.1661
     49 N         -11.1415    8.2609   -0.7844 N.pl3   1  LIG1       -0.3548
     50 H         -10.2929    8.4499   -0.2549 H       1  LIG1        0.1424
     51 H         -10.9480    8.4168   -1.7701 H       1  LIG1        0.1424
     52 N         -14.0193    7.4653   -0.9688 N.pl3   1  LIG1       -0.3549
     53 H         -13.6454    8.4060   -1.0491 H       1  LIG1        0.1424
     54 H         -14.5525    7.2152   -1.7948 H       1  LIG1        0.1424
     55 C         -14.1757    2.9734   -0.7322 C.ar    1  LIG1        0.2225
     56 C         -14.2517    4.3491   -0.4130 C.ar    1  LIG1        0.0650
     57 C         -15.4979    4.8519   -0.0630 C.ar    1  LIG1       -0.0038
     58 C         -16.5963    3.9949   -0.0274 C.ar    1  LIG1        0.1436
     59 C         -16.4076    2.6504   -0.3501 C.ar    1  LIG1        0.1178
     60 N         -15.2061    2.1677   -0.6877 N.ar    1  LIG1       -0.2087
     61 H         -15.6139    5.8975    0.1968 H       1  LIG1        0.0663
     62 O         -12.9887    2.4083   -1.0955 O.3     1  LIG1       -0.4919
     63 H         -12.4419    3.0794   -1.5260 H       1  LIG1        0.2937
     64 O         -17.8017    4.5139    0.3311 O.3     1  LIG1       -0.5046
     65 H         -18.4169    3.8045    0.5550 H       1  LIG1        0.2922
     66 C         -17.5000    0.4710    0.3338 C.ar    1  LIG1        0.0483
     67 C         -17.5580    1.6991   -0.3570 C.ar    1  LIG1        0.0251
     68 C         -18.7120    1.9984   -1.0785 C.ar    1  LIG1       -0.0486
     69 C         -19.7703    1.0975   -1.1024 C.ar    1  LIG1       -0.0320
     70 C         -19.6107   -0.0906   -0.3938 C.ar    1  LIG1        0.1076
     71 N         -18.5120   -0.3885    0.3040 N.ar    1  LIG1       -0.2481
     72 H         -18.7746    2.9283   -1.6319 H       1  LIG1        0.0625
     73 C         -16.2876    0.0636    1.1429 C.3     1  LIG1       -0.0217
     74 H         -15.9808    0.8753    1.8044 H       1  LIG1        0.0293
     75 H         -15.4558   -0.1536    0.4732 H       1  LIG1        0.0293
     76 H         -16.5511   -0.8172    1.7232 H       1  LIG1        0.0293
     77 H         -20.6728    1.3092   -1.6578 H       1  LIG1        0.0640
     78 C         -20.6688   -1.1186   -0.3707 C.ar    1  LIG1        0.1724
     79 C         -21.8573   -1.2760   -1.0221 C.ar    1  LIG1        0.1149
     80 C         -22.4208   -2.5317   -0.5829 C.ar    1  LIG1        0.0899
     81 C         -21.5223   -3.0326    0.3245 C.ar    1  LIG1        0.1703
     82 O         -20.4823   -2.1776    0.4371 O.2     1  LIG1       -0.4492
     83 N         -22.8945    0.3234   -2.7608 N.1     1  LIG1       -0.1907
     84 C         -22.4392   -0.3937   -1.9884 C.1     1  LIG1        0.1043
     85 C         -23.6277   -3.1094   -1.0798 C.1     1  LIG1       -0.0645
     86 C         -24.6450   -3.5602   -1.5377 C.1     1  LIG1       -0.1138
     87 H         -25.5423   -3.9497   -1.9620 H       1  LIG1        0.1232
     88 C         -21.4209   -4.2171    1.1428 C.ar    1  LIG1        0.1080
     89 C         -22.3341   -5.1772    1.5525 C.ar    1  LIG1        0.0953
     90 C         -21.6127   -6.0749    2.3844 C.ar    1  LIG1        0.1554
     91 C         -20.3080   -5.6478    2.4621 C.ar    1  LIG1        0.0461
     92 N         -20.2015   -4.5257    1.7117 N.ar    1  LIG1       -0.3537
     93 H         -19.3731   -3.9678    1.5753 H       1  LIG1        0.1656
     94 H         -19.4741   -6.0746    2.9906 H       1  LIG1        0.0845
     95 N         -23.7086   -5.2912    1.3509 N.pl3   1  LIG1       -0.3534
     96 H         -24.0695   -4.7471    0.5778 H       1  LIG1        0.1425
     97 H         -23.9873   -6.2636    1.2846 H       1  LIG1        0.1425
     98 O         -22.1642   -7.1850    2.9742 O.3     1  LIG1       -0.5035
     99 H         -22.8044   -6.8918    3.6348 H       1  LIG1        0.2923
@<TRIPOS>BOND
     1    11    10    1
     2    13    10    1
     3    10    12    1
     4    10     9    1
     5     9     1    1
     6    83    84    3
     7     1     6   ar
     8     1     2   ar
     9    84    79    1
    10    87    86    1
    11     6     5   ar
    12    54    52    1
    13    51    49    1
    14    77    69    1
    15    72    68    1
    16     8     2    1
    17    86    85    3
    18    63    62    1
    19    29    28    1
    20     2     3   ar
    21    25    23    1
    22    69    68   ar
    23    69    70   ar
    24    62    55    1
    25    85    80    1
    26    68    67   ar
    27    53    52    1
    28    79    80   ar
    29    79    78   ar
    30    52    45    1
    31    28    24    1
    32    49    44    1
    33    49    50    1
    34    23    24   ar
    35    23    20   ar
    36    55    60   ar
    37    55    56   ar
    38    60    59   ar
    39    35    34    1
    40    45    44   ar
    41    45    46   ar
    42     5    20    1
    43     5     4   ar
    44    24    21   ar
    45    80    81   ar
    46    44    43   ar
    47    46    56    1
    48    46    47   ar
    49    56    57   ar
    50    20    18   ar
    51    70    78    1
    52    70    71   ar
    53    78    82   ar
    54    67    59    1
    55    67    66   ar
    56    59    58   ar
    57    43    47   ar
    58    43    33    1
    59    34    33   ar
    60    34    30   ar
    61    47    48    1
    62    57    58   ar
    63    57    61    1
    64    21    30    1
    65    21    19   ar
    66    58    64    1
    67     3     4   ar
    68     3     7    1
    69    33    32   ar
    70    18    19   ar
    71    18    26    1
    72    30    31   ar
    73    19    22    1
    74    71    66   ar
    75    81    82   ar
    76    81    88    1
    77    64    65    1
    78    66    73    1
    79     4    14    1
    80    26    27    1
    81    75    73    1
    82    96    95    1
    83    32    31   ar
    84    32    38    1
    85    31    36    1
    86    38    39    1
    87    36    37    1
    88    88    89   ar
    89    88    92   ar
    90    73    76    1
    91    73    74    1
    92    97    95    1
    93    95    89    1
    94    89    90   ar
    95    93    92    1
    96    92    91   ar
    97    14    16    1
    98    14    15    1
    99    14    17    1
   100    41    39    1
   101    39    40    1
   102    39    42    1
   103    90    91   ar
   104    90    98    1
   105    91    94    1
   106    98    99    1
