@<TRIPOS>MOLECULE
mol_data/opt/m06hf/geoms/mol2/6li6li6li6li.out
 66 69 0 0 0
SMALL
GASTEIGER

@<TRIPOS>ATOM
      1 C          -2.9721   -1.1095   -0.7718 C.ar    1  LIG1        0.2150
      2 C          -3.1902   -2.3710   -0.1929 C.ar    1  LIG1        0.0003
      3 C          -4.3524   -2.5418    0.5250 C.ar    1  LIG1       -0.0518
      4 C          -5.2729   -1.4892    0.6656 C.ar    1  LIG1       -0.0241
      5 C          -4.9378   -0.2880    0.0505 C.ar    1  LIG1        0.0828
      6 N          -3.8104   -0.1047   -0.6542 N.ar    1  LIG1       -0.2125
      7 H          -4.5699   -3.5006    0.9816 H       1  LIG1        0.0622
      8 H          -2.4583   -3.1529   -0.3316 H       1  LIG1        0.0671
      9 O          -1.8397   -0.9427   -1.4784 O.3     1  LIG1       -0.4796
     10 C          -1.6394    0.3408   -2.0617 C.3     1  LIG1        0.0804
     11 H          -0.6912    0.2715   -2.5881 H       1  LIG1        0.0660
     12 H          -2.4522    0.5745   -2.7491 H       1  LIG1        0.0660
     13 H          -1.5985    1.1058   -1.2864 H       1  LIG1        0.0660
     14 C          -6.5652   -1.6769    1.4387 C.3     1  LIG1       -0.0377
     15 H          -7.3713   -1.1036    0.9821 H       1  LIG1        0.0278
     16 H          -6.4541   -1.3445    2.4729 H       1  LIG1        0.0278
     17 H          -6.8404   -2.7317    1.4457 H       1  LIG1        0.0278
     18 C          -6.5130    1.3995   -0.9811 C.ar    1  LIG1        0.2245
     19 C          -5.8355    0.9040    0.1509 C.ar    1  LIG1        0.0625
     20 C          -6.0274    1.5904    1.3328 C.ar    1  LIG1       -0.0425
     21 C          -6.8607    2.7173    1.4060 C.ar    1  LIG1       -0.0234
     22 C          -7.4933    3.0911    0.2230 C.ar    1  LIG1        0.0828
     23 N          -7.3039    2.4481   -0.9420 N.ar    1  LIG1       -0.2119
     24 H          -5.5004    1.2593    2.2217 H       1  LIG1        0.0629
     25 O          -6.3452    0.7466   -2.1413 O.3     1  LIG1       -0.4792
     26 C          -7.0599    1.2477   -3.2649 C.3     1  LIG1        0.0804
     27 H          -6.8121    0.5770   -4.0829 H       1  LIG1        0.0660
     28 H          -8.1311    1.2425   -3.0660 H       1  LIG1        0.0660
     29 H          -6.7444    2.2665   -3.4899 H       1  LIG1        0.0660
     30 C          -6.9986    3.4762    2.7105 C.3     1  LIG1       -0.0377
     31 H          -7.8081    3.0582    3.3096 H       1  LIG1        0.0278
     32 H          -7.2202    4.5271    2.5228 H       1  LIG1        0.0278
     33 H          -6.0648    3.4103    3.2699 H       1  LIG1        0.0278
     34 C          -9.4795    4.5005    0.9846 C.ar    1  LIG1        0.2245
     35 C          -8.3831    4.2855    0.1289 C.ar    1  LIG1        0.0625
     36 C          -8.1965    5.2230   -0.8710 C.ar    1  LIG1       -0.0425
     37 C          -9.0033    6.3625   -0.9759 C.ar    1  LIG1       -0.0234
     38 C         -10.0082    6.4958   -0.0186 C.ar    1  LIG1        0.0828
     39 N         -10.2490    5.5641    0.9168 N.ar    1  LIG1       -0.2119
     40 H          -7.4012    5.0538   -1.5887 H       1  LIG1        0.0629
     41 O          -9.7567    3.5562    1.9023 O.3     1  LIG1       -0.4792
     42 C         -10.8138    3.8370    2.8134 C.3     1  LIG1        0.0804
     43 H         -10.8538    2.9779    3.4782 H       1  LIG1        0.0660
     44 H         -10.6004    4.7508    3.3684 H       1  LIG1        0.0660
     45 H         -11.7551    3.9562    2.2774 H       1  LIG1        0.0660
     46 C          -8.7792    7.3526   -2.1010 C.3     1  LIG1       -0.0377
     47 H          -8.0287    8.0894   -1.8127 H       1  LIG1        0.0278
     48 H          -9.7031    7.8798   -2.3397 H       1  LIG1        0.0278
     49 H          -8.4386    6.8204   -2.9898 H       1  LIG1        0.0278
     50 C         -10.5159    8.9928    0.0317 C.ar    1  LIG1        0.2239
     51 C         -10.9530    7.6521    0.0059 C.ar    1  LIG1        0.0624
     52 C         -12.3189    7.4421    0.0630 C.ar    1  LIG1       -0.0431
     53 C         -13.2136    8.5199    0.0929 C.ar    1  LIG1       -0.0315
     54 C         -12.6533    9.7868    0.0775 C.ar    1  LIG1        0.0343
     55 N         -11.3359   10.0218    0.0551 N.ar    1  LIG1       -0.2205
     56 H         -12.6836    6.4209    0.0828 H       1  LIG1        0.0629
     57 H         -13.2870   10.6669    0.0914 H       1  LIG1        0.0833
     58 O          -9.1904    9.2153    0.0545 O.3     1  LIG1       -0.4792
     59 C          -8.7675   10.5751    0.0260 C.3     1  LIG1        0.0804
     60 H          -7.6815   10.5357    0.0323 H       1  LIG1        0.0660
     61 H          -9.1346   11.0648   -0.8760 H       1  LIG1        0.0660
     62 H          -9.1433   11.1065    0.8996 H       1  LIG1        0.0660
     63 C         -14.7133    8.3067    0.1343 C.3     1  LIG1       -0.0383
     64 H         -15.2307    9.2629    0.2102 H       1  LIG1        0.0278
     65 H         -14.9867    7.6950    0.9950 H       1  LIG1        0.0278
     66 H         -15.0523    7.7996   -0.7702 H       1  LIG1        0.0278
@<TRIPOS>BOND
     1    27    26    1
     2    29    26    1
     3    26    28    1
     4    26    25    1
     5    49    46    1
     6    12    10    1
     7    11    10    1
     8    48    46    1
     9    25    18    1
    10    46    47    1
    11    46    37    1
    12    10     9    1
    13    10    13    1
    14    40    36    1
    15     9     1    1
    16    18    23   ar
    17    18    19   ar
    18    37    36   ar
    19    37    38   ar
    20    23    22   ar
    21    61    59    1
    22    36    35   ar
    23     1     6   ar
    24     1     2   ar
    25    66    63    1
    26     6     5   ar
    27     8     2    1
    28     2     3   ar
    29    38    51    1
    30    38    39   ar
    31    51    50   ar
    32    51    52   ar
    33    59    60    1
    34    59    58    1
    35    59    62    1
    36    50    58    1
    37    50    55   ar
    38     5    19    1
    39     5     4   ar
    40    55    54   ar
    41    52    56    1
    42    52    53   ar
    43    54    57    1
    44    54    53   ar
    45    53    63    1
    46    35    22    1
    47    35    34   ar
    48    63    64    1
    49    63    65    1
    50    19    20   ar
    51    22    21   ar
    52     3     4   ar
    53     3     7    1
    54     4    14    1
    55    39    34   ar
    56    15    14    1
    57    34    41    1
    58    20    21   ar
    59    20    24    1
    60    21    30    1
    61    14    17    1
    62    14    16    1
    63    41    42    1
    64    45    42    1
    65    32    30    1
    66    30    33    1
    67    30    31    1
    68    42    44    1
    69    42    43    1
