@<TRIPOS>MOLECULE
mol_data/opt/m06hf/geoms/mol2/6li6li6li.out
 50 52 0 0 0
SMALL
GASTEIGER

@<TRIPOS>ATOM
      1 C          -4.1459   -1.8440   -1.1423 C.ar    1  LIG1        0.2150
      2 C          -3.2742   -2.2833   -0.1315 C.ar    1  LIG1        0.0003
      3 C          -3.1703   -1.4988    0.9950 C.ar    1  LIG1       -0.0518
      4 C          -3.9057   -0.3070    1.1134 C.ar    1  LIG1       -0.0241
      5 C          -4.7223    0.0249    0.0381 C.ar    1  LIG1        0.0828
      6 N          -4.8405   -0.7315   -1.0644 N.ar    1  LIG1       -0.2125
      7 H          -2.5220   -1.8043    1.8083 H       1  LIG1        0.0622
      8 H          -2.7330   -3.2090   -0.2607 H       1  LIG1        0.0671
      9 O          -4.2620   -2.6168   -2.2370 O.3     1  LIG1       -0.4796
     10 C          -5.1827   -2.1725   -3.2288 C.3     1  LIG1        0.0804
     11 H          -5.1525   -2.9296   -4.0076 H       1  LIG1        0.0660
     12 H          -6.1827   -2.0880   -2.8039 H       1  LIG1        0.0660
     13 H          -4.8796   -1.2010   -3.6184 H       1  LIG1        0.0660
     14 C          -3.8109    0.5481    2.3633 C.3     1  LIG1       -0.0377
     15 H          -4.7659    1.0285    2.5724 H       1  LIG1        0.0278
     16 H          -3.0541    1.3271    2.2485 H       1  LIG1        0.0278
     17 H          -3.5344   -0.0741    3.2148 H       1  LIG1        0.0278
     18 C          -6.9409    1.2379    0.1026 C.ar    1  LIG1        0.2245
     19 C          -5.5319    1.2824    0.0401 C.ar    1  LIG1        0.0625
     20 C          -4.9550    2.5340   -0.0235 C.ar    1  LIG1       -0.0425
     21 C          -5.7362    3.7006   -0.0420 C.ar    1  LIG1       -0.0234
     22 C          -7.1142    3.5190    0.0014 C.ar    1  LIG1        0.0828
     23 N          -7.6952    2.3127    0.0765 N.ar    1  LIG1       -0.2119
     24 H          -3.8735    2.6115   -0.0635 H       1  LIG1        0.0629
     25 O          -7.5214    0.0343    0.2122 O.3     1  LIG1       -0.4792
     26 C          -8.9411    0.0236    0.3284 C.3     1  LIG1        0.0804
     27 H          -9.2076   -1.0213    0.4617 H       1  LIG1        0.0660
     28 H          -9.2541    0.6220    1.1838 H       1  LIG1        0.0660
     29 H          -9.3963    0.4294   -0.5743 H       1  LIG1        0.0660
     30 C          -5.0850    5.0701   -0.0965 C.3     1  LIG1       -0.0377
     31 H          -5.6788    5.7993    0.4536 H       1  LIG1        0.0278
     32 H          -4.9852    5.4165   -1.1272 H       1  LIG1        0.0278
     33 H          -4.0887    5.0213    0.3433 H       1  LIG1        0.0278
     34 C          -8.9185    4.9598    1.0357 C.ar    1  LIG1        0.2239
     35 C          -8.0565    4.6784   -0.0478 C.ar    1  LIG1        0.0624
     36 C          -8.1486    5.5035   -1.1508 C.ar    1  LIG1       -0.0431
     37 C          -9.0688    6.5634   -1.1846 C.ar    1  LIG1       -0.0315
     38 C          -9.8599    6.7257   -0.0614 C.ar    1  LIG1        0.0343
     39 N          -9.7875    5.9469    1.0268 N.ar    1  LIG1       -0.2205
     40 H          -7.5082    5.3130   -2.0061 H       1  LIG1        0.0629
     41 H         -10.5960    7.5209   -0.0208 H       1  LIG1        0.0833
     42 O          -8.8196    4.1833    2.1246 O.3     1  LIG1       -0.4792
     43 C          -9.6984    4.4802    3.2041 C.3     1  LIG1        0.0804
     44 H          -9.4693    3.7434    3.9690 H       1  LIG1        0.0660
     45 H          -9.5202    5.4908    3.5716 H       1  LIG1        0.0660
     46 H         -10.7358    4.3963    2.8814 H       1  LIG1        0.0660
     47 C          -9.1922    7.4690   -2.3931 C.3     1  LIG1       -0.0383
     48 H          -9.9533    8.2296   -2.2207 H       1  LIG1        0.0278
     49 H          -9.4731    6.8920   -3.2755 H       1  LIG1        0.0278
     50 H          -8.2436    7.9680   -2.5968 H       1  LIG1        0.0278
@<TRIPOS>BOND
     1    11    10    1
     2    13    10    1
     3    49    47    1
     4    10    12    1
     5    10     9    1
     6    50    47    1
     7    47    48    1
     8    47    37    1
     9     9     1    1
    10    40    36    1
    11    37    36   ar
    12    37    38   ar
    13    36    35   ar
    14     1     6   ar
    15     1     2   ar
    16    32    30    1
    17     6     5   ar
    18    29    26    1
    19     8     2    1
    20     2     3   ar
    21    30    21    1
    22    30    33    1
    23    30    31    1
    24    24    20    1
    25    38    41    1
    26    38    39   ar
    27    35    22    1
    28    35    34   ar
    29    21    20   ar
    30    21    22   ar
    31    20    19   ar
    32    22    23   ar
    33     5    19    1
    34     5     4   ar
    35    19    18   ar
    36    23    18   ar
    37    18    25    1
    38    25    26    1
    39    26    27    1
    40    26    28    1
    41     3     4   ar
    42     3     7    1
    43    39    34   ar
    44    34    42    1
    45     4    14    1
    46    42    43    1
    47    16    14    1
    48    14    15    1
    49    14    17    1
    50    46    43    1
    51    43    45    1
    52    43    44    1
