@<TRIPOS>MOLECULE
mol_data/opt/m06hf/geoms/mol2/6li6li.out
 34 35 0 0 0
SMALL
GASTEIGER

@<TRIPOS>ATOM
      1 C          -4.3463   -1.8623   -1.0065 C.ar    1  LIG1        0.2150
      2 C          -3.5220   -2.3279    0.0306 C.ar    1  LIG1        0.0003
      3 C          -3.3662   -1.5046    1.1227 C.ar    1  LIG1       -0.0518
      4 C          -4.0199   -0.2626    1.1988 C.ar    1  LIG1       -0.0241
      5 C          -4.8335    0.0733    0.1203 C.ar    1  LIG1        0.0828
      6 N          -4.9736   -0.7091   -0.9656 N.ar    1  LIG1       -0.2125
      7 H          -2.7216   -1.8096    1.9391 H       1  LIG1        0.0622
      8 H          -3.0372   -3.2883   -0.0616 H       1  LIG1        0.0671
      9 O          -4.4878   -2.6524   -2.0865 O.3     1  LIG1       -0.4796
     10 C          -5.3529   -2.1805   -3.1137 C.3     1  LIG1        0.0804
     11 H          -5.3621   -2.9666   -3.8637 H       1  LIG1        0.0660
     12 H          -6.3529   -2.0081   -2.7169 H       1  LIG1        0.0660
     13 H          -4.9714   -1.2495   -3.5332 H       1  LIG1        0.0660
     14 C          -3.7909    0.6418    2.3933 C.3     1  LIG1       -0.0377
     15 H          -4.4958    0.4033    3.1905 H       1  LIG1        0.0278
     16 H          -3.9284    1.6877    2.1185 H       1  LIG1        0.0278
     17 H          -2.7726    0.5081    2.7597 H       1  LIG1        0.0278
     18 C          -6.4468    1.8218    1.0483 C.ar    1  LIG1        0.2239
     19 C          -5.5744    1.3681    0.0374 C.ar    1  LIG1        0.0624
     20 C          -5.4733    2.1568   -1.0947 C.ar    1  LIG1       -0.0431
     21 C          -6.1684    3.3689   -1.1957 C.ar    1  LIG1       -0.0315
     22 C          -6.9637    3.7147   -0.1156 C.ar    1  LIG1        0.0343
     23 N          -7.1078    2.9579    0.9787 N.ar    1  LIG1       -0.2205
     24 H          -4.8411    1.8136   -1.9065 H       1  LIG1        0.0629
     25 H          -7.5264    4.6417   -0.1231 H       1  LIG1        0.0833
     26 O          -6.6202    1.0347    2.1247 O.3     1  LIG1       -0.4792
     27 C          -7.4880    1.5231    3.1427 C.3     1  LIG1        0.0804
     28 H          -7.4785    0.7594    3.9158 H       1  LIG1        0.0660
     29 H          -7.1210    2.4738    3.5293 H       1  LIG1        0.0660
     30 H          -8.4932    1.6626    2.7469 H       1  LIG1        0.0660
     31 C          -6.0539    4.2499   -2.4234 C.3     1  LIG1       -0.0383
     32 H          -6.6738    5.1393   -2.3128 H       1  LIG1        0.0278
     33 H          -6.3811    3.7080   -3.3119 H       1  LIG1        0.0278
     34 H          -5.0200    4.5639   -2.5739 H       1  LIG1        0.0278
@<TRIPOS>BOND
     1    11    10    1
     2    13    10    1
     3    33    31    1
     4    10    12    1
     5    10     9    1
     6    34    31    1
     7    31    32    1
     8    31    21    1
     9     9     1    1
    10    24    20    1
    11    21    20   ar
    12    21    22   ar
    13    20    19   ar
    14     1     6   ar
    15     1     2   ar
    16     6     5   ar
    17    25    22    1
    18    22    23   ar
    19     8     2    1
    20     2     3   ar
    21    19     5    1
    22    19    18   ar
    23     5     4   ar
    24    23    18   ar
    25    18    26    1
    26     3     4   ar
    27     3     7    1
    28     4    14    1
    29    16    14    1
    30    26    27    1
    31    14    17    1
    32    14    15    1
    33    30    27    1
    34    27    29    1
    35    27    28    1
