@<TRIPOS>MOLECULE
mol_data/opt/m06hf/geoms/mol2/6ll.out
 19 19 0 0 0
SMALL
GASTEIGER

@<TRIPOS>ATOM
      1 C          -4.6508   -1.9733    0.0000 C.ar    1  LIG1        0.2146
      2 C          -3.2562   -2.0808    0.0000 C.ar    1  LIG1        0.0034
      3 C          -2.5053   -0.9181   -0.0001 C.ar    1  LIG1       -0.0134
      4 C          -3.1709    0.3128   -0.0003 C.ar    1  LIG1        0.1383
      5 C          -4.5606    0.3038   -0.0002 C.ar    1  LIG1        0.0730
      6 N          -5.2841   -0.8151   -0.0001 N.ar    1  LIG1       -0.2177
      7 H          -1.4254   -0.9757   -0.0002 H       1  LIG1        0.0656
      8 H          -2.8023   -3.0607    0.0001 H       1  LIG1        0.0672
      9 H          -5.0910    1.2480   -0.0003 H       1  LIG1        0.0868
     10 O          -5.3616   -3.1191    0.0002 O.3     1  LIG1       -0.4796
     11 C          -6.7787   -2.9894    0.0002 C.3     1  LIG1        0.0804
     12 H          -7.1597   -4.0070    0.0003 H       1  LIG1        0.0660
     13 H          -7.1106   -2.4508    0.8881 H       1  LIG1        0.0660
     14 H          -7.1107   -2.4510   -0.8877 H       1  LIG1        0.0660
     15 O          -2.5658    1.5314   -0.0004 O.3     1  LIG1       -0.4936
     16 C          -1.1529    1.5537   -0.0005 C.3     1  LIG1        0.0789
     17 H          -0.8690    2.6024   -0.0006 H       1  LIG1        0.0660
     18 H          -0.7572    1.0660    0.8947 H       1  LIG1        0.0660
     19 H          -0.7573    1.0658   -0.8955 H       1  LIG1        0.0660
@<TRIPOS>BOND
     1    19    16    1
     2    14    11    1
     3    17    16    1
     4    16    15    1
     5    16    18    1
     6    15     4    1
     7     9     5    1
     8     4     5   ar
     9     4     3   ar
    10     5     6   ar
    11     7     3    1
    12     3     2   ar
    13     6     1   ar
    14     2     1   ar
    15     2     8    1
    16     1    10    1
    17    10    11    1
    18    11    12    1
    19    11    13    1
