@<TRIPOS>MOLECULE
mol_data/opt/m06hf/geoms/mol2/6ll12eh13ai4fh-.out
 54 57 0 0 0
SMALL
GASTEIGER

@<TRIPOS>ATOM
      1 C          -4.2373   -2.1283   -0.6669 C.ar    1  LIG1        0.2153
      2 C          -2.9184   -2.1588   -0.1874 C.ar    1  LIG1        0.0035
      3 C          -2.4040   -1.0053    0.3676 C.ar    1  LIG1       -0.0127
      4 C          -3.2023    0.1459    0.4226 C.ar    1  LIG1        0.1493
      5 C          -4.4825    0.0777   -0.1242 C.ar    1  LIG1        0.1525
      6 N          -4.9879   -1.0505   -0.6406 N.ar    1  LIG1       -0.2060
      7 H          -1.3996   -0.9964    0.7683 H       1  LIG1        0.0656
      8 H          -2.3501   -3.0743   -0.2571 H       1  LIG1        0.0672
      9 O          -4.7291   -3.2683   -1.1894 O.3     1  LIG1       -0.4796
     10 C          -6.0514   -3.2101   -1.7129 C.3     1  LIG1        0.0804
     11 H          -6.2504   -4.2047   -2.1021 H       1  LIG1        0.0660
     12 H          -6.7595   -2.9520   -0.9252 H       1  LIG1        0.0660
     13 H          -6.1125   -2.4631   -2.5044 H       1  LIG1        0.0660
     14 O          -2.8293    1.3064    1.0116 O.3     1  LIG1       -0.4929
     15 C          -1.4463    1.5996    1.0870 C.3     1  LIG1        0.0789
     16 H          -1.3841    2.6443    1.3785 H       1  LIG1        0.0660
     17 H          -0.9557    0.9779    1.8400 H       1  LIG1        0.0660
     18 H          -0.9746    1.4564    0.1118 H       1  LIG1        0.0660
     19 C          -5.3552    1.2629   -0.1522 C.ar    1  LIG1        0.1747
     20 C          -5.1234    2.5919   -0.3871 C.ar    1  LIG1        0.0933
     21 C          -6.4118    3.2396   -0.3483 C.ar    1  LIG1        0.0887
     22 C          -7.3110    2.2535   -0.0802 C.ar    1  LIG1        0.1736
     23 O          -6.6696    1.0576    0.0241 O.2     1  LIG1       -0.4485
     24 C          -3.9032    3.2578   -0.7239 C.1     1  LIG1       -0.0639
     25 C          -2.9286    3.8847   -1.0477 C.1     1  LIG1       -0.1137
     26 H          -2.0599    4.4287   -1.3377 H       1  LIG1        0.1232
     27 N          -6.6551    4.6000   -0.5354 N.pl3   1  LIG1       -0.3540
     28 H          -5.8647    5.0709   -0.9594 H       1  LIG1        0.1425
     29 H          -7.5120    4.7736   -1.0492 H       1  LIG1        0.1425
     30 C          -8.7505    2.2752    0.0850 C.ar    1  LIG1        0.0847
     31 C          -9.6175    3.3207    0.3385 C.ar    1  LIG1       -0.0298
     32 C         -10.9349    2.7854    0.3776 C.ar    1  LIG1       -0.0244
     33 C         -10.8198    1.4266    0.1505 C.ar    1  LIG1        0.0535
     34 N          -9.4911    1.1373   -0.0194 N.ar    1  LIG1       -0.3514
     35 H          -9.1150    0.2334   -0.2607 H       1  LIG1        0.1660
     36 H          -9.3277    4.3411    0.5326 H       1  LIG1        0.0642
     37 C         -12.2025    3.5480    0.6703 C.3     1  LIG1       -0.0377
     38 H         -12.9483    2.8869    1.1123 H       1  LIG1        0.0278
     39 H         -12.6202    3.9656   -0.2462 H       1  LIG1        0.0278
     40 H         -11.9915    4.3586    1.3687 H       1  LIG1        0.0278
     41 C         -13.0196    0.4608   -0.5653 C.ar    1  LIG1        0.1261
     42 C         -13.9376   -0.5836   -0.5411 C.ar    1  LIG1       -0.0178
     43 C         -11.8238    0.3444    0.1528 C.ar    1  LIG1        0.0417
     44 C         -13.6764   -1.7476    0.1722 C.ar    1  LIG1       -0.0376
     45 H         -14.8659   -0.4936   -1.0946 H       1  LIG1        0.0655
     46 C         -11.5737   -0.8304    0.8647 C.ar    1  LIG1       -0.0284
     47 C         -12.4818   -1.8904    0.8805 C.ar    1  LIG1        0.0254
     48 H         -10.6612   -0.8985    1.4469 H       1  LIG1        0.0644
     49 H         -14.4086   -2.5456    0.1855 H       1  LIG1        0.0637
     50 O         -13.2308    1.6005   -1.2890 O.3     1  LIG1       -0.5061
     51 H         -14.0908    1.5632   -1.7192 H       1  LIG1        0.2922
     52 N         -12.2344   -3.0386    1.6497 N.pl3   1  LIG1       -0.3579
     53 H         -12.6914   -3.8726    1.3078 H       1  LIG1        0.1423
     54 H         -11.2559   -3.2083    1.8382 H       1  LIG1        0.1423
@<TRIPOS>BOND
     1    13    10    1
     2    11    10    1
     3    51    50    1
     4    10     9    1
     5    10    12    1
     6    26    25    1
     7    50    41    1
     8     9     1    1
     9    45    42    1
    10    29    27    1
    11    25    24    3
    12    28    27    1
    13    24    20    1
    14     1     6   ar
    15     1     2   ar
    16     6     5   ar
    17    41    42   ar
    18    41    43   ar
    19    42    44   ar
    20    27    21    1
    21    20    21   ar
    22    20    19   ar
    23    21    22   ar
    24    35    34    1
    25     8     2    1
    26    39    37    1
    27     2     3   ar
    28    19     5    1
    29    19    23   ar
    30     5     4   ar
    31    22    23   ar
    32    22    30    1
    33    34    30   ar
    34    34    33   ar
    35    30    31   ar
    36    18    15    1
    37    33    43    1
    38    33    32   ar
    39    43    46   ar
    40    44    49    1
    41    44    47   ar
    42    31    32   ar
    43    31    36    1
    44     3     4   ar
    45     3     7    1
    46    32    37    1
    47     4    14    1
    48    37    38    1
    49    37    40    1
    50    46    47   ar
    51    46    48    1
    52    47    52    1
    53    14    15    1
    54    15    16    1
    55    15    17    1
    56    53    52    1
    57    52    54    1
