@<TRIPOS>MOLECULE
mol_data/opt/m06hf/geoms/mol2/6ll13id6ei13ea-.out
 55 58 0 0 0
SMALL
GASTEIGER

@<TRIPOS>ATOM
      1 C          -4.6038   -2.0807    0.4308 C.ar    1  LIG1        0.2152
      2 C          -3.2769   -2.3010    0.0425 C.ar    1  LIG1        0.0035
      3 C          -2.5375   -1.2093   -0.3705 C.ar    1  LIG1       -0.0127
      4 C          -3.1204    0.0638   -0.3773 C.ar    1  LIG1        0.1476
      5 C          -4.4381    0.1857    0.0672 C.ar    1  LIG1        0.1326
      6 N          -5.1535   -0.8860    0.4397 N.ar    1  LIG1       -0.2077
      7 H          -1.5165   -1.3477   -0.6981 H       1  LIG1        0.0656
      8 H          -2.8718   -3.3016    0.0666 H       1  LIG1        0.0672
      9 O          -5.3302   -3.1480    0.8128 O.3     1  LIG1       -0.4796
     10 C          -6.6403   -2.8906    1.3055 C.3     1  LIG1        0.0804
     11 H          -7.0321   -3.8607    1.5982 H       1  LIG1        0.0660
     12 H          -6.5974   -2.2158    2.1605 H       1  LIG1        0.0660
     13 H          -7.2619   -2.4434    0.5294 H       1  LIG1        0.0660
     14 O          -2.5025    1.1853   -0.8191 O.3     1  LIG1       -0.4929
     15 C          -1.1296    1.1107   -1.1534 C.3     1  LIG1        0.0789
     16 H          -0.8320    2.1262   -1.4013 H       1  LIG1        0.0660
     17 H          -0.5436    0.7502   -0.3041 H       1  LIG1        0.0660
     18 H          -0.9760    0.4620   -2.0193 H       1  LIG1        0.0660
     19 C          -5.1848    1.4602    0.0990 C.ar    1  LIG1        0.0733
     20 C          -4.8665    2.8046    0.2073 C.ar    1  LIG1       -0.0056
     21 C          -6.1159    3.4876    0.1943 C.ar    1  LIG1        0.0806
     22 C          -7.1468    2.5531    0.0930 C.ar    1  LIG1        0.0675
     23 N          -6.5452    1.3492    0.0459 N.ar    1  LIG1       -0.3516
     24 H          -7.0111    0.4511   -0.0106 H       1  LIG1        0.1660
     25 C          -3.5341    3.4942    0.3699 C.3     1  LIG1       -0.0364
     26 H          -3.6967    4.4774    0.8116 H       1  LIG1        0.0279
     27 H          -3.0460    3.6141   -0.5968 H       1  LIG1        0.0279
     28 H          -2.8808    2.9122    1.0176 H       1  LIG1        0.0279
     29 N          -6.3575    6.0542    0.3437 N.1     1  LIG1       -0.1908
     30 C          -6.2602    4.9113    0.2673 C.1     1  LIG1        0.1016
     31 C          -9.5046    1.8142   -0.4946 C.ar    1  LIG1        0.1230
     32 C          -8.6066    2.7442    0.0594 C.ar    1  LIG1        0.0337
     33 C          -9.1748    3.8858    0.6282 C.ar    1  LIG1       -0.0449
     34 C         -10.5447    4.1195    0.5972 C.ar    1  LIG1       -0.0223
     35 C         -11.3331    3.1537   -0.0531 C.ar    1  LIG1        0.0926
     36 N         -10.8153    2.0246   -0.5396 N.ar    1  LIG1       -0.2360
     37 H          -8.5361    4.6029    1.1290 H       1  LIG1        0.0628
     38 C          -9.0701    0.5532   -1.0733 C.1     1  LIG1       -0.0491
     39 C          -8.7323   -0.4936   -1.5597 C.1     1  LIG1       -0.1124
     40 H          -8.4411   -1.4104   -2.0198 H       1  LIG1        0.1232
     41 C         -11.1133    5.3256    1.3128 C.3     1  LIG1       -0.0376
     42 H         -12.1354    5.1306    1.6360 H       1  LIG1        0.0278
     43 H         -11.1272    6.1892    0.6494 H       1  LIG1        0.0278
     44 H         -10.4928    5.5499    2.1801 H       1  LIG1        0.0278
     45 C         -12.8040    3.2267   -0.1931 C.ar    1  LIG1        0.0808
     46 C         -13.7248    4.2421   -0.4302 C.ar    1  LIG1        0.0514
     47 C         -15.0094    3.6280   -0.5265 C.ar    1  LIG1       -0.0283
     48 C         -14.8261    2.2779   -0.3628 C.ar    1  LIG1        0.0034
     49 N         -13.4983    2.0576   -0.1696 N.ar    1  LIG1       -0.3585
     50 H         -13.0257    1.1681   -0.0925 H       1  LIG1        0.1654
     51 H         -15.5342    1.4675   -0.3706 H       1  LIG1        0.0807
     52 C         -13.4704    5.6321   -0.6728 C.1     1  LIG1       -0.0675
     53 C         -13.3063    6.8004   -0.9077 C.1     1  LIG1       -0.1138
     54 H         -13.1593    7.8331   -1.1233 H       1  LIG1        0.1232
     55 H         -15.9364    4.1413   -0.7137 H       1  LIG1        0.0645
@<TRIPOS>BOND
     1    40    39    1
     2    18    15    1
     3    39    38    3
     4    16    15    1
     5    15    14    1
     6    15    17    1
     7    54    53    1
     8    38    31    1
     9    53    52    3
    10    14     4    1
    11    55    47    1
    12     7     3    1
    13    52    46    1
    14    27    25    1
    15    36    31   ar
    16    36    35   ar
    17    47    46   ar
    18    47    48   ar
    19    31    32   ar
    20    46    45   ar
    21     4     3   ar
    22     4     5   ar
    23    51    48    1
    24     3     2   ar
    25    48    49   ar
    26    45    49   ar
    27    45    35    1
    28    49    50    1
    29    35    34   ar
    30    24    23    1
    31     2     8    1
    32     2     1   ar
    33    23    22   ar
    34    23    19   ar
    35    32    22    1
    36    32    33   ar
    37     5    19    1
    38     5     6   ar
    39    22    21   ar
    40    19    20   ar
    41    21    20   ar
    42    21    30    1
    43    20    25    1
    44    30    29    3
    45    25    26    1
    46    25    28    1
    47     1     6   ar
    48     1     9    1
    49    13    10    1
    50    34    33   ar
    51    34    41    1
    52    33    37    1
    53    43    41    1
    54     9    10    1
    55    10    11    1
    56    10    12    1
    57    41    42    1
    58    41    44    1
