@<TRIPOS>MOLECULE
mol_data/opt/m06hf/geoms/mol2/6ll13al-12if13de.out
 53 56 0 0 0
SMALL
GASTEIGER

@<TRIPOS>ATOM
      1 C          -4.5343   -2.0600    0.6384 C.ar    1  LIG1        0.2152
      2 C          -3.1487   -2.1947    0.4971 C.ar    1  LIG1        0.0035
      3 C          -2.4212   -1.0651    0.1692 C.ar    1  LIG1       -0.0127
      4 C          -3.0771    0.1571   -0.0073 C.ar    1  LIG1        0.1476
      5 C          -4.4645    0.1872    0.1567 C.ar    1  LIG1        0.1324
      6 N          -5.1602   -0.9149    0.4709 N.ar    1  LIG1       -0.2077
      7 H          -1.3489   -1.1382    0.0519 H       1  LIG1        0.0656
      8 H          -2.6881   -3.1594    0.6458 H       1  LIG1        0.0672
      9 O          -5.2380   -3.1618    0.9620 O.3     1  LIG1       -0.4796
     10 C          -6.6455   -3.0103    1.0949 C.3     1  LIG1        0.0804
     11 H          -7.0181   -3.9962    1.3574 H       1  LIG1        0.0660
     12 H          -6.8788   -2.2895    1.8793 H       1  LIG1        0.0660
     13 H          -7.0801   -2.6733    0.1529 H       1  LIG1        0.0660
     14 O          -2.4575    1.3222   -0.3297 O.3     1  LIG1       -0.4929
     15 C          -1.0463    1.3104   -0.4400 C.3     1  LIG1        0.0789
     16 H          -0.7579    2.3310   -0.6749 H       1  LIG1        0.0660
     17 H          -0.5892    1.0053    0.5046 H       1  LIG1        0.0660
     18 H          -0.7264    0.6442   -1.2450 H       1  LIG1        0.0660
     19 C          -5.2658    1.4094    0.0054 C.ar    1  LIG1        0.0728
     20 C          -4.9605    2.7327   -0.2883 C.ar    1  LIG1        0.0078
     21 C          -6.1898    3.4342   -0.2770 C.ar    1  LIG1        0.1489
     22 C          -7.1984    2.5314    0.0260 C.ar    1  LIG1        0.1251
     23 N          -6.6055    1.3139    0.1864 N.ar    1  LIG1       -0.3475
     24 H          -7.0606    0.4459    0.4307 H       1  LIG1        0.1661
     25 H          -3.9765    3.1124   -0.4892 H       1  LIG1        0.0676
     26 O          -6.4320    4.7443   -0.5333 O.3     1  LIG1       -0.4929
     27 C          -5.3040    5.5038   -0.9250 C.3     1  LIG1        0.0789
     28 H          -5.6670    6.5099   -1.1168 H       1  LIG1        0.0660
     29 H          -4.5592    5.5231   -0.1252 H       1  LIG1        0.0660
     30 H          -4.8604    5.0874   -1.8327 H       1  LIG1        0.0660
     31 C          -8.6336    2.7168    0.1270 C.ar    1  LIG1        0.1620
     32 C          -9.4041    3.7612    0.5314 C.ar    1  LIG1        0.0391
     33 C         -10.7632    3.3072    0.3865 C.ar    1  LIG1        0.1678
     34 C         -10.7122    2.0195   -0.0683 C.ar    1  LIG1        0.1945
     35 O          -9.4033    1.6551   -0.2295 O.2     1  LIG1       -0.4477
     36 C          -8.9947    5.1072    1.0625 C.3     1  LIG1       -0.0325
     37 H          -9.7319    5.4359    1.7944 H       1  LIG1        0.0280
     38 H          -8.9453    5.8369    0.2542 H       1  LIG1        0.0280
     39 H          -8.0110    5.0378    1.5239 H       1  LIG1        0.0280
     40 O         -11.7946    4.1224    0.6678 O.3     1  LIG1       -0.5030
     41 H         -12.6324    3.6561    0.7884 H       1  LIG1        0.2923
     42 C         -11.6772    1.0210   -0.4835 C.ar    1  LIG1        0.1046
     43 C         -13.0328    0.8628   -0.2542 C.ar    1  LIG1        0.0954
     44 C         -13.4625   -0.3145   -0.9523 C.ar    1  LIG1        0.0600
     45 C         -12.3471   -0.8279   -1.5660 C.ar    1  LIG1        0.0190
     46 N         -11.2908   -0.0143   -1.2754 N.ar    1  LIG1       -0.3560
     47 H         -10.3420   -0.1211   -1.6032 H       1  LIG1        0.1655
     48 H         -12.2437   -1.7054   -2.1789 H       1  LIG1        0.0820
     49 N         -14.4073    2.4654    1.2230 N.1     1  LIG1       -0.1908
     50 C         -13.8207    1.7289    0.5611 C.1     1  LIG1        0.1026
     51 C         -14.7894   -0.8491   -0.9854 C.1     1  LIG1       -0.0669
     52 C         -15.9068   -1.2878   -1.0055 C.1     1  LIG1       -0.1138
     53 H         -16.8999   -1.6722   -1.0199 H       1  LIG1        0.1232
@<TRIPOS>BOND
     1    48    45    1
     2    30    27    1
     3    47    46    1
     4    45    46   ar
     5    45    44   ar
     6    46    42   ar
     7    18    15    1
     8    28    27    1
     9    53    52    1
    10    52    51    3
    11    51    44    1
    12    44    43   ar
    13    27    26    1
    14    27    29    1
    15    16    15    1
    16    26    21    1
    17    25    20    1
    18    42    43   ar
    19    42    34    1
    20    15    14    1
    21    15    17    1
    22    14     4    1
    23    20    21   ar
    24    20    19   ar
    25    21    22   ar
    26    43    50    1
    27    35    34   ar
    28    35    31   ar
    29    34    33   ar
    30     4     5   ar
    31     4     3   ar
    32    19     5    1
    33    19    23   ar
    34    22    31    1
    35    22    23   ar
    36     7     3    1
    37    31    32   ar
    38    13    10    1
    39     5     6   ar
    40     3     2   ar
    41    23    24    1
    42    38    36    1
    43    33    32   ar
    44    33    40    1
    45     6     1   ar
    46     2     1   ar
    47     2     8    1
    48    32    36    1
    49    50    49    3
    50     1     9    1
    51    40    41    1
    52     9    10    1
    53    36    39    1
    54    36    37    1
    55    10    11    1
    56    10    12    1
