@<TRIPOS>MOLECULE
mol_data/opt/m06hf/geoms/mol2/6ll13fh-6ea-6hl-13fh-4da-13fh6ed-.out
 101 108 0 0 0
SMALL
GASTEIGER

@<TRIPOS>ATOM
      1 C          -4.4151   -1.8117    1.6008 C.ar    1  LIG1        0.2152
      2 C          -3.0336   -2.0246    1.5372 C.ar    1  LIG1        0.0035
      3 C          -2.2575   -1.0138    0.9997 C.ar    1  LIG1       -0.0127
      4 C          -2.8617    0.1619    0.5527 C.ar    1  LIG1        0.1477
      5 C          -4.2485    0.2938    0.6748 C.ar    1  LIG1        0.1360
      6 N          -4.9886   -0.7034    1.1845 N.ar    1  LIG1       -0.2076
      7 H          -1.1869   -1.1463    0.9279 H       1  LIG1        0.0656
      8 H          -2.6142   -2.9494    1.9023 H       1  LIG1        0.0672
      9 O          -5.1744   -2.7919    2.1222 O.3     1  LIG1       -0.4796
     10 C          -6.5578   -2.5079    2.3024 C.3     1  LIG1        0.0804
     11 H          -6.9713   -3.3886    2.7854 H       1  LIG1        0.0660
     12 H          -6.6844   -1.6248    2.9293 H       1  LIG1        0.0660
     13 H          -7.0406   -2.3337    1.3408 H       1  LIG1        0.0660
     14 O          -2.1687    1.1969   -0.0185 O.3     1  LIG1       -0.4929
     15 C          -0.7911    1.0094   -0.3095 C.3     1  LIG1        0.0789
     16 H          -0.4750    1.9085   -0.8313 H       1  LIG1        0.0660
     17 H          -0.2179    0.8937    0.6121 H       1  LIG1        0.0660
     18 H          -0.6595    0.1378   -0.9537 H       1  LIG1        0.0660
     19 C          -5.0178    1.4735    0.2618 C.ar    1  LIG1        0.1130
     20 C          -4.7350    2.7910   -0.0897 C.ar    1  LIG1        0.1651
     21 C          -5.9641    3.4450   -0.3272 C.ar    1  LIG1        0.0930
     22 C          -6.9743    2.5110   -0.1204 C.ar    1  LIG1        0.0742
     23 N          -6.3785    1.3431    0.2217 N.ar    1  LIG1       -0.3484
     24 H          -6.8367    0.4707    0.4472 H       1  LIG1        0.1661
     25 O          -3.5583    3.4574   -0.1695 O.3     1  LIG1       -0.5030
     26 H          -2.8440    2.8100   -0.0545 H       1  LIG1        0.2923
     27 N          -6.1131    4.8123   -0.6860 N.pl3   1  LIG1       -0.3535
     28 H          -5.2703    5.3141   -0.4201 H       1  LIG1        0.1425
     29 H          -6.2299    4.9127   -1.6913 H       1  LIG1        0.1425
     30 C          -9.3534    1.6719   -0.4201 C.ar    1  LIG1        0.1229
     31 C          -8.4294    2.6999   -0.1937 C.ar    1  LIG1        0.0341
     32 C          -8.9658    3.9819    0.0119 C.ar    1  LIG1       -0.0479
     33 C         -10.3308    4.1756   -0.0201 C.ar    1  LIG1       -0.0349
     34 C         -11.1800    3.0829   -0.2759 C.ar    1  LIG1        0.0758
     35 N         -10.6746    1.8664   -0.4579 N.ar    1  LIG1       -0.2376
     36 H          -8.2793    4.7997    0.1970 H       1  LIG1        0.0626
     37 C          -8.9412    0.2989   -0.6602 C.1     1  LIG1       -0.0491
     38 C          -8.6267   -0.8419   -0.8742 C.1     1  LIG1       -0.1124
     39 H          -8.3518   -1.8485   -1.0941 H       1  LIG1        0.1232
     40 H         -10.7438    5.1520    0.1881 H       1  LIG1        0.0639
     41 C         -13.5578    2.1865   -0.1012 C.ar    1  LIG1        0.1264
     42 C         -12.6540    3.2467   -0.3533 C.ar    1  LIG1        0.0434
     43 C         -13.2034    4.4879   -0.6878 C.ar    1  LIG1       -0.0053
     44 C         -14.5747    4.6776   -0.7306 C.ar    1  LIG1        0.1483
     45 C         -15.3921    3.5793   -0.4275 C.ar    1  LIG1        0.1343
     46 N         -14.8775    2.3860   -0.1403 N.ar    1  LIG1       -0.2265
     47 H         -12.5422    5.3038   -0.9473 H       1  LIG1        0.0662
     48 N         -13.1490    0.9270    0.2328 N.pl3   1  LIG1       -0.3426
     49 H         -13.8797    0.2343    0.2449 H       1  LIG1        0.1437
     50 H         -12.2151    0.6624   -0.0505 H       1  LIG1        0.1437
     51 O         -15.2021    5.8266   -1.0616 O.3     1  LIG1       -0.4929
     52 C         -14.4235    6.9678   -1.3387 C.3     1  LIG1        0.0789
     53 H         -15.1356    7.7638   -1.5363 H       1  LIG1        0.0660
     54 H         -13.8006    7.2320   -0.4788 H       1  LIG1        0.0660
     55 H         -13.7934    6.8055   -2.2181 H       1  LIG1        0.0660
     56 C         -16.8630    3.6354   -0.4318 C.ar    1  LIG1        0.1129
     57 C         -17.8715    4.5839   -0.5683 C.ar    1  LIG1        0.1651
     58 C         -19.1152    3.9193   -0.4065 C.ar    1  LIG1        0.0930
     59 C         -18.8430    2.5764   -0.1776 C.ar    1  LIG1        0.0728
     60 N         -17.4965    2.4365   -0.2124 N.ar    1  LIG1       -0.3484
     61 H         -16.9491    1.6174    0.0182 H       1  LIG1        0.1661
     62 O         -17.8382    5.9071   -0.8289 O.3     1  LIG1       -0.5030
     63 H         -18.7771    6.1532   -0.9024 H       1  LIG1        0.2923
     64 N         -20.3204    4.6568   -0.5677 N.pl3   1  LIG1       -0.3535
     65 H         -20.9378    4.2501   -1.2629 H       1  LIG1        0.1425
     66 H         -20.8267    4.7626    0.3069 H       1  LIG1        0.1425
     67 C         -20.8786    1.4048    0.7462 C.ar    1  LIG1        0.0615
     68 C         -21.7082    0.2872    0.8356 C.ar    1  LIG1       -0.0345
     69 C         -19.7203    1.4040   -0.0462 C.ar    1  LIG1        0.0176
     70 C         -21.3749   -0.8837    0.1540 C.ar    1  LIG1        0.0032
     71 H         -22.6077    0.3270    1.4367 H       1  LIG1        0.0637
     72 C         -19.4030    0.2188   -0.7219 C.ar    1  LIG1       -0.0507
     73 C         -20.2028   -0.9081   -0.6133 C.ar    1  LIG1       -0.0518
     74 H         -18.5212    0.1988   -1.3495 H       1  LIG1        0.0625
     75 N         -21.5362    3.4744    2.1710 N.1     1  LIG1       -0.1908
     76 C         -21.2297    2.5703    1.5324 C.1     1  LIG1        0.0998
     77 H         -19.9093   -1.8186   -1.1215 H       1  LIG1        0.0624
     78 C         -22.2494   -2.0598    0.2550 C.ar    1  LIG1        0.0909
     79 C         -23.1094   -2.4431    1.2687 C.ar    1  LIG1        0.1635
     80 C         -23.7311   -3.6537    0.8919 C.ar    1  LIG1        0.0930
     81 C         -23.2267   -3.9899   -0.3590 C.ar    1  LIG1        0.0742
     82 N         -22.3362   -3.0110   -0.7132 N.ar    1  LIG1       -0.3497
     83 H         -21.9142   -2.9488   -1.6283 H       1  LIG1        0.1661
     84 O         -23.3681   -1.7940    2.4510 O.3     1  LIG1       -0.5031
     85 H         -22.5628   -1.7481    2.9816 H       1  LIG1        0.2923
     86 N         -24.6595   -4.3697    1.6804 N.pl3   1  LIG1       -0.3535
     87 H         -24.7355   -3.9269    2.5916 H       1  LIG1        0.1425
     88 H         -25.5813   -4.3853    1.2519 H       1  LIG1        0.1425
     89 C         -23.2554   -5.2975   -2.5483 C.ar    1  LIG1        0.1223
     90 C         -23.4984   -5.1858   -1.1655 C.ar    1  LIG1        0.0353
     91 C         -24.0127   -6.3219   -0.5259 C.ar    1  LIG1       -0.0310
     92 C         -24.2588   -7.4641   -1.2717 C.ar    1  LIG1        0.0705
     93 C         -23.9815   -7.4675   -2.6443 C.ar    1  LIG1        0.0464
     94 N         -23.4885   -6.4075   -3.2565 N.ar    1  LIG1       -0.2448
     95 H         -24.2051   -6.2936    0.5407 H       1  LIG1        0.0638
     96 H         -24.1658   -8.3502   -3.2431 H       1  LIG1        0.0843
     97 C         -22.7327   -4.1904   -3.3305 C.1     1  LIG1       -0.0491
     98 C         -22.3064   -3.2919   -4.0066 C.1     1  LIG1       -0.1124
     99 H         -21.9491   -2.5040   -4.6303 H       1  LIG1        0.1232
    100 N         -25.2028   -9.6049   -0.1504 N.1     1  LIG1       -0.1908
    101 C         -24.7858   -8.6566   -0.6428 C.1     1  LIG1        0.1007
@<TRIPOS>BOND
     1    99    98    1
     2    98    97    3
     3    97    89    1
     4    94    93   ar
     5    94    89   ar
     6    96    93    1
     7    93    92   ar
     8    89    90   ar
     9    55    52    1
    10    29    27    1
    11    83    82    1
    12    53    52    1
    13    74    72    1
    14    52    51    1
    15    52    54    1
    16    92   101    1
    17    92    91   ar
    18    65    64    1
    19    90    91   ar
    20    90    81    1
    21    77    73    1
    22    39    38    1
    23    51    44    1
    24    18    15    1
    25    47    43    1
    26    63    62    1
    27    38    37    3
    28    16    15    1
    29    62    57    1
    30    44    43   ar
    31    44    45   ar
    32    72    73   ar
    33    72    69   ar
    34    82    81   ar
    35    82    78   ar
    36    43    42   ar
    37    27    28    1
    38    27    21    1
    39    37    30    1
    40   101   100    3
    41    73    70   ar
    42    57    56   ar
    43    57    58   ar
    44    64    58    1
    45    64    66    1
    46    91    95    1
    47    35    30   ar
    48    35    34   ar
    49    56    45    1
    50    56    60   ar
    51    45    46   ar
    52    30    31   ar
    53    58    59   ar
    54    81    80   ar
    55    42    34    1
    56    42    41   ar
    57    21    22   ar
    58    21    20   ar
    59    15    14    1
    60    15    17    1
    61    34    33   ar
    62    60    59   ar
    63    60    61    1
    64    31    22    1
    65    31    32   ar
    66    59    69    1
    67    25    20    1
    68    25    26    1
    69    46    41   ar
    70    22    23   ar
    71    41    48    1
    72    20    19   ar
    73    50    48    1
    74    69    67   ar
    75    33    32   ar
    76    33    40    1
    77    14     4    1
    78    32    36    1
    79    70    78    1
    80    70    68   ar
    81    23    19   ar
    82    23    24    1
    83    48    49    1
    84    78    79   ar
    85    19     5    1
    86     4     5   ar
    87     4     3   ar
    88     5     6   ar
    89    67    68   ar
    90    67    76    1
    91    68    71    1
    92    80    79   ar
    93    80    86    1
    94     7     3    1
    95     3     2   ar
    96     6     1   ar
    97    88    86    1
    98    79    84    1
    99    13    10    1
   100    76    75    3
   101     2     1   ar
   102     2     8    1
   103     1     9    1
   104    86    87    1
   105     9    10    1
   106    10    11    1
   107    10    12    1
   108    84    85    1
