@<TRIPOS>MOLECULE
mol_data/opt/m06hf/geoms/mol2/6ll6ll6ll.out
 53 55 0 0 0
SMALL
GASTEIGER

@<TRIPOS>ATOM
      1 C          -4.2891   -1.9919   -1.1261 C.ar    1  LIG1        0.2152
      2 C          -3.1305   -2.2596   -0.3876 C.ar    1  LIG1        0.0035
      3 C          -2.6931   -1.2919    0.4962 C.ar    1  LIG1       -0.0128
      4 C          -3.4150   -0.0994    0.6273 C.ar    1  LIG1        0.1464
      5 C          -4.5624    0.0675   -0.1545 C.ar    1  LIG1        0.1215
      6 N          -4.9649   -0.8695   -1.0163 N.ar    1  LIG1       -0.2090
      7 H          -1.8023   -1.4677    1.0833 H       1  LIG1        0.0656
      8 H          -2.6145   -3.1989   -0.5222 H       1  LIG1        0.0672
      9 O          -4.7208   -2.9373   -1.9830 O.3     1  LIG1       -0.4796
     10 C          -5.9403   -2.6533   -2.6641 C.3     1  LIG1        0.0804
     11 H          -6.1624   -3.5482   -3.2392 H       1  LIG1        0.0660
     12 H          -6.7317   -2.4376   -1.9460 H       1  LIG1        0.0660
     13 H          -5.8149   -1.7915   -3.3196 H       1  LIG1        0.0660
     14 O          -3.0639    0.9126    1.4695 O.3     1  LIG1       -0.4930
     15 C          -2.0353    0.6614    2.4084 C.3     1  LIG1        0.0789
     16 H          -1.9825    1.5483    3.0341 H       1  LIG1        0.0660
     17 H          -2.2784   -0.2096    3.0216 H       1  LIG1        0.0660
     18 H          -1.0761    0.5090    1.9065 H       1  LIG1        0.0660
     19 C          -6.7926    1.2491   -0.0076 C.ar    1  LIG1        0.2248
     20 C          -5.3869    1.3049   -0.0709 C.ar    1  LIG1        0.0690
     21 C          -4.8070    2.5651   -0.0739 C.ar    1  LIG1       -0.0034
     22 C          -5.6047    3.7092   -0.0201 C.ar    1  LIG1        0.1470
     23 C          -6.9916    3.5429    0.0249 C.ar    1  LIG1        0.1215
     24 N          -7.5430    2.3291    0.0196 N.ar    1  LIG1       -0.2085
     25 H          -3.7293    2.6352   -0.1033 H       1  LIG1        0.0663
     26 O          -7.3970    0.0510    0.0609 O.3     1  LIG1       -0.4792
     27 C          -8.8135    0.0756    0.2133 C.3     1  LIG1        0.0804
     28 H          -9.1010   -0.9617    0.3642 H       1  LIG1        0.0660
     29 H          -9.0920    0.6939    1.0668 H       1  LIG1        0.0660
     30 H          -9.2823    0.4815   -0.6830 H       1  LIG1        0.0660
     31 O          -5.1098    4.9796   -0.0138 O.3     1  LIG1       -0.4929
     32 C          -3.7071    5.1319    0.0916 C.3     1  LIG1        0.0789
     33 H          -3.5291    6.2016    0.1645 H       1  LIG1        0.0660
     34 H          -3.3316    4.6312    0.9878 H       1  LIG1        0.0660
     35 H          -3.2042    4.7344   -0.7939 H       1  LIG1        0.0660
     36 C          -9.0260    4.7253    0.9469 C.ar    1  LIG1        0.2242
     37 C          -7.9211    4.7066    0.0738 C.ar    1  LIG1        0.0690
     38 C          -7.7438    5.8023   -0.7627 C.ar    1  LIG1       -0.0040
     39 C          -8.6583    6.8549   -0.7241 C.ar    1  LIG1        0.1390
     40 C          -9.7259    6.7568    0.1593 C.ar    1  LIG1        0.0730
     41 N          -9.8956    5.7193    0.9741 N.ar    1  LIG1       -0.2171
     42 H          -6.8893    5.8142   -1.4247 H       1  LIG1        0.0663
     43 H         -10.4547    7.5567    0.2004 H       1  LIG1        0.0868
     44 O          -9.1903    3.7057    1.8088 O.3     1  LIG1       -0.4792
     45 C         -10.3136    3.7839    2.6773 C.3     1  LIG1        0.0804
     46 H         -10.2617    2.8872    3.2892 H       1  LIG1        0.0660
     47 H         -10.2579    4.6795    3.2960 H       1  LIG1        0.0660
     48 H         -11.2387    3.8071    2.1016 H       1  LIG1        0.0660
     49 O          -8.5945    7.9780   -1.4908 O.3     1  LIG1       -0.4936
     50 C          -7.4776    8.1169   -2.3462 C.3     1  LIG1        0.0789
     51 H          -7.5918    9.0824   -2.8315 H       1  LIG1        0.0660
     52 H          -6.5466    8.0981   -1.7729 H       1  LIG1        0.0660
     53 H          -7.4635    7.3256   -3.1002 H       1  LIG1        0.0660
@<TRIPOS>BOND
     1    13    10    1
     2    11    10    1
     3    53    50    1
     4    51    50    1
     5    10     9    1
     6    10    12    1
     7    50    52    1
     8    50    49    1
     9     9     1    1
    10    49    39    1
    11    42    38    1
    12     1     6   ar
    13     1     2   ar
    14     6     5   ar
    15    35    32    1
    16    38    39   ar
    17    38    37   ar
    18    39    40   ar
    19    30    27    1
    20     8     2    1
    21     2     3   ar
    22     5    20    1
    23     5     4   ar
    24    25    21    1
    25    21    20   ar
    26    21    22   ar
    27    20    19   ar
    28    22    31    1
    29    22    23   ar
    30    31    32    1
    31    19    24   ar
    32    19    26    1
    33    24    23   ar
    34    23    37    1
    35    26    27    1
    36    37    36   ar
    37    32    33    1
    38    32    34    1
    39    40    43    1
    40    40    41   ar
    41    27    28    1
    42    27    29    1
    43     3     4   ar
    44     3     7    1
    45     4    14    1
    46    36    41   ar
    47    36    44    1
    48    14    15    1
    49    44    45    1
    50    18    15    1
    51    48    45    1
    52    15    17    1
    53    15    16    1
    54    45    46    1
    55    45    47    1
