@<TRIPOS>MOLECULE
mol_data/opt/m06hf/geoms/mol2/6ll6ll6ll6ll.out
 70 73 0 0 0
SMALL
GASTEIGER

@<TRIPOS>ATOM
      1 C          -4.2049   -2.0876    1.0567 C.ar    1  LIG1        0.2152
      2 C          -3.0465   -2.3361    0.3110 C.ar    1  LIG1        0.0035
      3 C          -2.6126   -1.3478   -0.5522 C.ar    1  LIG1       -0.0128
      4 C          -3.3391   -0.1557   -0.6582 C.ar    1  LIG1        0.1464
      5 C          -4.4857   -0.0086    0.1297 C.ar    1  LIG1        0.1215
      6 N          -4.8833   -0.9648    0.9725 N.ar    1  LIG1       -0.2090
      7 H          -1.7220   -1.5079   -1.1444 H       1  LIG1        0.0656
      8 H          -2.5289   -3.2772    0.4237 H       1  LIG1        0.0672
      9 O          -4.6348   -3.0526    1.8922 O.3     1  LIG1       -0.4796
     10 C          -5.8550   -2.7861    2.5791 C.3     1  LIG1        0.0804
     11 H          -6.0749   -3.6936    3.1349 H       1  LIG1        0.0660
     12 H          -5.7313   -1.9385    3.2529 H       1  LIG1        0.0660
     13 H          -6.6474   -2.5565    1.8663 H       1  LIG1        0.0660
     14 O          -2.9964    0.8729   -1.4840 O.3     1  LIG1       -0.4930
     15 C          -1.9703    0.6428   -2.4311 C.3     1  LIG1        0.0789
     16 H          -1.9326    1.5351   -3.0503 H       1  LIG1        0.0660
     17 H          -1.0065    0.4986   -1.9357 H       1  LIG1        0.0660
     18 H          -2.2062   -0.2265   -3.0501 H       1  LIG1        0.0660
     19 C          -6.7260    1.1612    0.0277 C.ar    1  LIG1        0.2248
     20 C          -5.3186    1.2247    0.0728 C.ar    1  LIG1        0.0690
     21 C          -4.7479    2.4886    0.0841 C.ar    1  LIG1       -0.0034
     22 C          -5.5539    3.6280    0.0578 C.ar    1  LIG1        0.1470
     23 C          -6.9399    3.4537    0.0322 C.ar    1  LIG1        0.1215
     24 N          -7.4835    2.2362    0.0276 N.ar    1  LIG1       -0.2085
     25 H          -3.6703    2.5682    0.1010 H       1  LIG1        0.0663
     26 O          -7.3246   -0.0387   -0.0510 O.3     1  LIG1       -0.4792
     27 C          -8.7427   -0.0201   -0.1900 C.3     1  LIG1        0.0804
     28 H          -9.0268   -1.0585   -0.3400 H       1  LIG1        0.0660
     29 H          -9.2052    0.3829    0.7110 H       1  LIG1        0.0660
     30 H          -9.0318    0.5981   -1.0403 H       1  LIG1        0.0660
     31 O          -5.0629    4.9006    0.0645 O.3     1  LIG1       -0.4929
     32 C          -3.6854    5.0671   -0.2177 C.3     1  LIG1        0.0789
     33 H          -3.5301    6.1378   -0.3209 H       1  LIG1        0.0660
     34 H          -3.0691    4.6851    0.6002 H       1  LIG1        0.0660
     35 H          -3.4223    4.5592   -1.1489 H       1  LIG1        0.0660
     36 C          -9.0012    4.6390   -0.8343 C.ar    1  LIG1        0.2248
     37 C          -7.8760    4.6117    0.0133 C.ar    1  LIG1        0.0690
     38 C          -7.6940    5.7023    0.8516 C.ar    1  LIG1       -0.0034
     39 C          -8.6157    6.7509    0.8546 C.ar    1  LIG1        0.1470
     40 C          -9.7106    6.6675   -0.0095 C.ar    1  LIG1        0.1215
     41 N          -9.8629    5.6328   -0.8364 N.ar    1  LIG1       -0.2085
     42 H          -6.8291    5.7147    1.4997 H       1  LIG1        0.0663
     43 O          -9.1980    3.6243   -1.6931 O.3     1  LIG1       -0.4792
     44 C         -10.3811    3.6906   -2.4833 C.3     1  LIG1        0.0804
     45 H         -10.4034    2.7571   -3.0397 H       1  LIG1        0.0660
     46 H         -11.2579    3.7913   -1.8436 H       1  LIG1        0.0660
     47 H         -10.3393    4.5444   -3.1597 H       1  LIG1        0.0660
     48 O          -8.5129    7.8516    1.6524 O.3     1  LIG1       -0.4929
     49 C          -7.5158    7.8423    2.6564 C.3     1  LIG1        0.0789
     50 H          -7.6602    8.7574    3.2250 H       1  LIG1        0.0660
     51 H          -7.6366    6.9760    3.3111 H       1  LIG1        0.0660
     52 H          -6.5162    7.8371    2.2139 H       1  LIG1        0.0660
     53 C         -12.1203    7.4185   -0.0872 C.ar    1  LIG1        0.2242
     54 C         -10.7488    7.7352   -0.0641 C.ar    1  LIG1        0.0690
     55 C         -10.3981    9.0787   -0.1166 C.ar    1  LIG1       -0.0040
     56 C         -11.3966   10.0484   -0.2100 C.ar    1  LIG1        0.1390
     57 C         -12.7178    9.6210   -0.2479 C.ar    1  LIG1        0.0730
     58 N         -13.0636    8.3379   -0.1821 N.ar    1  LIG1       -0.2171
     59 H          -9.3502    9.3402   -0.0769 H       1  LIG1        0.0663
     60 H         -13.5098   10.3549   -0.3287 H       1  LIG1        0.0868
     61 O         -12.4869    6.1291    0.0195 O.3     1  LIG1       -0.4792
     62 C         -13.8835    5.8633    0.0300 C.3     1  LIG1        0.0804
     63 H         -13.9666    4.7838    0.1253 H       1  LIG1        0.0660
     64 H         -14.3615    6.3642    0.8721 H       1  LIG1        0.0660
     65 H         -14.3438    6.2075   -0.8960 H       1  LIG1        0.0660
     66 O         -11.1823   11.3919   -0.2704 O.3     1  LIG1       -0.4936
     67 C          -9.8432   11.8378   -0.1943 C.3     1  LIG1        0.0789
     68 H          -9.8876   12.9229   -0.2331 H       1  LIG1        0.0660
     69 H          -9.3815   11.5190    0.7442 H       1  LIG1        0.0660
     70 H          -9.2596   11.4629   -1.0393 H       1  LIG1        0.0660
@<TRIPOS>BOND
     1    47    44    1
     2    16    15    1
     3    18    15    1
     4    45    44    1
     5    44    46    1
     6    44    43    1
     7    15    17    1
     8    15    14    1
     9    43    36    1
    10    14     4    1
    11    35    32    1
    12     7     3    1
    13    30    27    1
    14    70    67    1
    15    65    62    1
    16    41    36   ar
    17    41    40   ar
    18    36    37   ar
    19     4     3   ar
    20     4     5   ar
    21     3     2   ar
    22    28    27    1
    23    60    57    1
    24    33    32    1
    25    66    56    1
    26    66    67    1
    27    57    56   ar
    28    57    58   ar
    29    68    67    1
    30    32    31    1
    31    32    34    1
    32    56    55   ar
    33    67    69    1
    34    27    26    1
    35    27    29    1
    36    58    53   ar
    37    55    59    1
    38    55    54   ar
    39    53    54   ar
    40    53    61    1
    41    54    40    1
    42    26    19    1
    43    40    39   ar
    44    37    23    1
    45    37    38   ar
    46    61    62    1
    47    24    19   ar
    48    24    23   ar
    49    19    20   ar
    50    62    63    1
    51    62    64    1
    52    23    22   ar
    53    22    31    1
    54    22    21   ar
    55    20    21   ar
    56    20     5    1
    57    21    25    1
    58     5     6   ar
    59     2     8    1
    60     2     1   ar
    61    38    39   ar
    62    38    42    1
    63    39    48    1
    64     6     1   ar
    65     1     9    1
    66    48    49    1
    67    13    10    1
    68     9    10    1
    69    52    49    1
    70    10    11    1
    71    10    12    1
    72    49    50    1
    73    49    51    1
