@<TRIPOS>MOLECULE
mol_data/opt/m06hf/geoms/mol2/6ll6ll.out
 36 37 0 0 0
SMALL
GASTEIGER

@<TRIPOS>ATOM
      1 C          -4.5574   -2.0374   -0.6807 C.ar    1  LIG1        0.2152
      2 C          -3.2262   -2.1915   -0.2769 C.ar    1  LIG1        0.0035
      3 C          -2.5772   -1.0854    0.2377 C.ar    1  LIG1       -0.0128
      4 C          -3.2649    0.1293    0.3449 C.ar    1  LIG1        0.1464
      5 C          -4.5953    0.1746   -0.0806 C.ar    1  LIG1        0.1215
      6 N          -5.2055   -0.8967   -0.5928 N.ar    1  LIG1       -0.2090
      7 H          -1.5482   -1.1695    0.5592 H       1  LIG1        0.0656
      8 H          -2.7441   -3.1527   -0.3747 H       1  LIG1        0.0672
      9 O          -5.1933   -3.1166   -1.1772 O.3     1  LIG1       -0.4796
     10 C          -6.5652   -2.9314   -1.5165 C.3     1  LIG1        0.0804
     11 H          -6.9178   -3.9102   -1.8296 H       1  LIG1        0.0660
     12 H          -7.1206   -2.5687   -0.6512 H       1  LIG1        0.0660
     13 H          -6.6605   -2.2069   -2.3251 H       1  LIG1        0.0660
     14 O          -2.7140    1.2746    0.8363 O.3     1  LIG1       -0.4930
     15 C          -1.4756    1.1693    1.5135 C.3     1  LIG1        0.0789
     16 H          -1.2869    2.1500    1.9416 H       1  LIG1        0.0660
     17 H          -1.5356    0.4231    2.3096 H       1  LIG1        0.0660
     18 H          -0.6709    0.9113    0.8200 H       1  LIG1        0.0660
     19 C          -6.6932    1.4243    0.5543 C.ar    1  LIG1        0.2242
     20 C          -5.3949    1.4289    0.0114 C.ar    1  LIG1        0.0690
     21 C          -4.8939    2.6380   -0.4538 C.ar    1  LIG1       -0.0040
     22 C          -5.6881    3.7831   -0.3857 C.ar    1  LIG1        0.1390
     23 C          -6.9624    3.6598    0.1540 C.ar    1  LIG1        0.0730
     24 N          -7.4449    2.5086    0.6145 N.ar    1  LIG1       -0.2171
     25 H          -3.8916    2.6618   -0.8575 H       1  LIG1        0.0663
     26 H          -7.5976    4.5346    0.2130 H       1  LIG1        0.0868
     27 O          -7.1769    0.2735    1.0546 O.3     1  LIG1       -0.4792
     28 C          -8.4840    0.3211    1.6136 C.3     1  LIG1        0.0804
     29 H          -8.6747   -0.6854    1.9761 H       1  LIG1        0.0660
     30 H          -8.5241    1.0419    2.4304 H       1  LIG1        0.0660
     31 H          -9.2124    0.6046    0.8540 H       1  LIG1        0.0660
     32 O          -5.3163    5.0222   -0.8089 O.3     1  LIG1       -0.4936
     33 C          -4.0368    5.1501   -1.3955 C.3     1  LIG1        0.0789
     34 H          -3.9399    6.1954   -1.6762 H       1  LIG1        0.0660
     35 H          -3.2533    4.8858   -0.6799 H       1  LIG1        0.0660
     36 H          -3.9527    4.5203   -2.2852 H       1  LIG1        0.0660
@<TRIPOS>BOND
     1    13    10    1
     2    36    33    1
     3    11    10    1
     4    34    33    1
     5    10     9    1
     6    10    12    1
     7    33    32    1
     8    33    35    1
     9     9     1    1
    10    25    21    1
    11    32    22    1
    12     1     6   ar
    13     1     2   ar
    14     6     5   ar
    15    21    22   ar
    16    21    20   ar
    17    22    23   ar
    18     8     2    1
    19     2     3   ar
    20     5    20    1
    21     5     4   ar
    22    20    19   ar
    23    23    26    1
    24    23    24   ar
    25     3     4   ar
    26     3     7    1
    27     4    14    1
    28    19    24   ar
    29    19    27    1
    30    18    15    1
    31    14    15    1
    32    31    28    1
    33    27    28    1
    34    15    16    1
    35    15    17    1
    36    28    29    1
    37    28    30    1
