@<TRIPOS>MOLECULE
mol_data/opt/m06hf/geoms/mol2/812-12-.out
 22 24 0 0 0
SMALL
GASTEIGER

@<TRIPOS>ATOM
      1 C          -0.2117    0.0529   -0.0000 C.ar    1  LIG1        0.1605
      2 N           1.1142   -0.0356    0.0000 N.ar    1  LIG1       -0.1338
      3 C           1.1115    2.2150    0.0000 C.ar    1  LIG1        0.2381
      4 N          -0.8991    1.1949   -0.0000 N.ar    1  LIG1       -0.1338
      5 N           1.7984    1.0713    0.0001 N.ar    1  LIG1       -0.1226
      6 N          -0.2242    2.3013   -0.0000 N.ar    1  LIG1       -0.1226
      7 H          -0.7747   -0.8682   -0.0000 H       1  LIG1        0.1085
      8 C           1.8410    3.4803    0.0000 C.ar    1  LIG1        0.1761
      9 C           1.3955    4.7672   -0.0001 C.ar    1  LIG1       -0.0119
     10 C           2.5678    5.5814    0.0000 C.ar    1  LIG1       -0.0121
     11 C           3.6226    4.7130    0.0000 C.ar    1  LIG1        0.1707
     12 O           3.1869    3.4434    0.0000 O.2     1  LIG1       -0.4485
     13 H           0.3642    5.0756   -0.0001 H       1  LIG1        0.0657
     14 H           2.6226    6.6563    0.0001 H       1  LIG1        0.0657
     15 C           5.0632    4.9284    0.0001 C.ar    1  LIG1        0.1697
     16 C           5.8158    6.0627    0.0001 C.ar    1  LIG1       -0.0128
     17 C           7.1816    5.6210   -0.0000 C.ar    1  LIG1       -0.0232
     18 C           7.1326    4.2658    0.0001 C.ar    1  LIG1        0.0927
     19 O           5.8557    3.8398    0.0000 O.2     1  LIG1       -0.4598
     20 H           7.8888    3.5012    0.0002 H       1  LIG1        0.1029
     21 H           5.4507    7.0758    0.0001 H       1  LIG1        0.0656
     22 H           8.0669    6.2327   -0.0001 H       1  LIG1        0.0649
@<TRIPOS>BOND
     1    13     9    1
     2     9     8   ar
     3     9    10   ar
     4    22    17    1
     5     4     6   ar
     6     4     1   ar
     7     7     1    1
     8     6     3   ar
     9    17    16   ar
    10    17    18   ar
    11     1     2   ar
    12    12     8   ar
    13    12    11   ar
    14     8     3    1
    15    19    15   ar
    16    19    18   ar
    17    11    10   ar
    18    11    15    1
    19     2     5   ar
    20    10    14    1
    21     3     5   ar
    22    15    16   ar
    23    16    21    1
    24    18    20    1
