@<TRIPOS>MOLECULE
mol_data/opt/m06hf/geoms/mol2/812-12-12-.out
 29 32 0 0 0
SMALL
GASTEIGER

@<TRIPOS>ATOM
      1 C          -0.5045    0.1731    0.0000 C.ar    1  LIG1        0.1605
      2 N           0.8159    0.0247    0.0001 N.ar    1  LIG1       -0.1338
      3 C           0.9161    2.2732    0.0000 C.ar    1  LIG1        0.2381
      4 N          -1.1390    1.3454   -0.0000 N.ar    1  LIG1       -0.1338
      5 N           1.5498    1.0992    0.0001 N.ar    1  LIG1       -0.1226
      6 N          -0.4144    2.4199   -0.0000 N.ar    1  LIG1       -0.1226
      7 H          -1.1097   -0.7209    0.0000 H       1  LIG1        0.1085
      8 C           1.7035    3.5033    0.0000 C.ar    1  LIG1        0.1761
      9 C           1.3157    4.8097   -0.0001 C.ar    1  LIG1       -0.0119
     10 C           2.5225    5.5705    0.0000 C.ar    1  LIG1       -0.0121
     11 C           3.5382    4.6551    0.0000 C.ar    1  LIG1        0.1707
     12 O           3.0462    3.4064    0.0000 O.2     1  LIG1       -0.4485
     13 H           0.2993    5.1635   -0.0001 H       1  LIG1        0.0657
     14 H           2.6249    6.6420    0.0000 H       1  LIG1        0.0657
     15 C           4.9849    4.8072    0.0000 C.ar    1  LIG1        0.1707
     16 C           5.7885    5.9081    0.0000 C.ar    1  LIG1       -0.0121
     17 C           7.1296    5.4123    0.0001 C.ar    1  LIG1       -0.0121
     18 C           7.0245    4.0528    0.0001 C.ar    1  LIG1        0.1707
     19 O           5.7298    3.6849    0.0000 O.2     1  LIG1       -0.4486
     20 H           5.4680    6.9358    0.0000 H       1  LIG1        0.0657
     21 H           8.0408    5.9845    0.0002 H       1  LIG1        0.0657
     22 C           8.0232    2.9930    0.0001 C.ar    1  LIG1        0.1697
     23 C           9.3843    3.0189    0.0002 C.ar    1  LIG1       -0.0128
     24 C           9.7986    1.6445   -0.0002 C.ar    1  LIG1       -0.0232
     25 C           8.6564    0.9128    0.0002 C.ar    1  LIG1        0.0927
     26 O           7.5795    1.7215    0.0001 O.2     1  LIG1       -0.4598
     27 H           8.4560   -0.1437    0.0003 H       1  LIG1        0.1029
     28 H          10.0094    3.8952    0.0002 H       1  LIG1        0.0656
     29 H          10.8054    1.2652   -0.0005 H       1  LIG1        0.0649
@<TRIPOS>BOND
     1    29    24    1
     2    24    23   ar
     3    24    25   ar
     4    13     9    1
     5     9    10   ar
     6     9     8   ar
     7     4     6   ar
     8     4     1   ar
     9     6     3   ar
    10    10    14    1
    11    10    11   ar
    12     8    12   ar
    13     8     3    1
    14     7     1    1
    15    11    12   ar
    16    11    15    1
    17     1     2   ar
    18    19    15   ar
    19    19    18   ar
    20     3     5   ar
    21    15    16   ar
    22    20    16    1
    23    16    17   ar
    24    18    22    1
    25    18    17   ar
    26    26    22   ar
    27    26    25   ar
    28    22    23   ar
    29     2     5   ar
    30    17    21    1
    31    23    28    1
    32    25    27    1
