@<TRIPOS>MOLECULE
mol_data/opt/m06hf/geoms/mol2/812-12-5.out
 29 32 0 0 0
SMALL
GASTEIGER

@<TRIPOS>ATOM
      1 C          -0.4642    0.1552   -0.0000 C.ar    1  LIG1        0.1605
      2 N           0.8577    0.0221    0.0000 N.ar    1  LIG1       -0.1338
      3 C           0.9320    2.2719   -0.0001 C.ar    1  LIG1        0.2381
      4 N          -1.1120    1.3203   -0.0001 N.ar    1  LIG1       -0.1338
      5 N           1.5790    1.1053   -0.0000 N.ar    1  LIG1       -0.1226
      6 N          -0.4002    2.4030   -0.0001 N.ar    1  LIG1       -0.1226
      7 H          -1.0591   -0.7456   -0.0000 H       1  LIG1        0.1085
      8 C           1.7040    3.5112   -0.0000 C.ar    1  LIG1        0.1761
      9 C           1.3012    4.8129   -0.0000 C.ar    1  LIG1       -0.0119
     10 C           2.4989    5.5881    0.0001 C.ar    1  LIG1       -0.0121
     11 C           3.5255    4.6851    0.0000 C.ar    1  LIG1        0.1707
     12 O           3.0480    3.4301   -0.0001 O.2     1  LIG1       -0.4485
     13 H           0.2808    5.1550    0.0000 H       1  LIG1        0.0657
     14 H           2.5889    6.6605    0.0002 H       1  LIG1        0.0657
     15 C           4.9705    4.8481    0.0000 C.ar    1  LIG1        0.1706
     16 C           5.7713    5.9500    0.0001 C.ar    1  LIG1       -0.0121
     17 C           7.1143    5.4561    0.0002 C.ar    1  LIG1       -0.0146
     18 C           7.0165    4.0958   -0.0000 C.ar    1  LIG1        0.1424
     19 O           5.7191    3.7270   -0.0001 O.2     1  LIG1       -0.4512
     20 H           5.4488    6.9771    0.0001 H       1  LIG1        0.0657
     21 H           8.0236    6.0322    0.0003 H       1  LIG1        0.0656
     22 C           7.9940    3.0160   -0.0001 C.ar    1  LIG1        0.0544
     23 C           7.7317    1.6768   -0.0003 C.ar    1  LIG1       -0.0440
     24 C           8.9281    0.8893   -0.0006 C.ar    1  LIG1       -0.0540
     25 C          10.0543    1.6518   -0.0008 C.ar    1  LIG1       -0.0236
     26 S           9.6909    3.3360    0.0002 S.2     1  LIG1       -0.0936
     27 H          11.0810    1.3248   -0.0011 H       1  LIG1        0.0693
     28 H           6.7276    1.2781   -0.0003 H       1  LIG1        0.0630
     29 H           8.9372   -0.1902   -0.0009 H       1  LIG1        0.0623
@<TRIPOS>BOND
     1    27    25    1
     2    29    24    1
     3    25    24   ar
     4    25    26   ar
     5    24    23   ar
     6    28    23    1
     7    23    22   ar
     8    22    18    1
     9    22    26   ar
    10    19    18   ar
    11    19    15   ar
    12    12     8   ar
    13    12    11   ar
    14     6     4   ar
    15     6     3   ar
    16     4     1   ar
    17     3     8    1
    18     3     5   ar
    19    18    17   ar
    20     8     9   ar
    21     1     7    1
    22     1     2   ar
    23     9    13    1
    24     9    10   ar
    25     5     2   ar
    26    11    15    1
    27    11    10   ar
    28    15    16   ar
    29    16    20    1
    30    16    17   ar
    31    10    14    1
    32    17    21    1
