@<TRIPOS>MOLECULE
mol_data/opt/m06hf/geoms/mol2/812-5-8-.out
 28 31 0 0 0
SMALL
GASTEIGER

@<TRIPOS>ATOM
      1 C          -0.2669    0.0637   -0.0002 C.ar    1  LIG1        0.1605
      2 N           1.0598   -0.0137   -0.0001 N.ar    1  LIG1       -0.1338
      3 C           1.0365    2.2363    0.0001 C.ar    1  LIG1        0.2381
      4 N          -0.9644    1.1999   -0.0001 N.ar    1  LIG1       -0.1338
      5 N           1.7337    1.0996   -0.0000 N.ar    1  LIG1       -0.1226
      6 N          -0.2992    2.3124    0.0000 N.ar    1  LIG1       -0.1226
      7 H          -0.8226   -0.8622   -0.0002 H       1  LIG1        0.1085
      8 C           1.7579    3.5075    0.0001 C.ar    1  LIG1        0.1760
      9 C           1.3058    4.7921    0.0001 C.ar    1  LIG1       -0.0120
     10 C           2.4733    5.6138    0.0003 C.ar    1  LIG1       -0.0146
     11 C           3.5364    4.7548    0.0002 C.ar    1  LIG1        0.1424
     12 O           3.1039    3.4804    0.0001 O.2     1  LIG1       -0.4511
     13 H           0.2725    5.0935    0.0001 H       1  LIG1        0.0657
     14 H           2.5190    6.6893    0.0005 H       1  LIG1        0.0656
     15 C           4.9785    4.9594    0.0002 C.ar    1  LIG1        0.0551
     16 C           5.6425    6.1596    0.0003 C.ar    1  LIG1       -0.0433
     17 C           7.0532    5.9898    0.0002 C.ar    1  LIG1       -0.0431
     18 C           7.4093    4.6685    0.0001 C.ar    1  LIG1        0.0605
     19 S           6.0509    3.6125    0.0000 S.2     1  LIG1       -0.0820
     20 H           5.1453    7.1182    0.0004 H       1  LIG1        0.0630
     21 H           7.7799    6.7885    0.0003 H       1  LIG1        0.0630
     22 C           8.7728    4.1383    0.0000 C.ar    1  LIG1        0.2099
     23 N           9.7833    5.0143    0.0002 N.ar    1  LIG1       -0.1253
     24 C          11.1397    3.2177    0.0005 C.ar    1  LIG1        0.1605
     25 N           8.9286    2.8121    0.0001 N.ar    1  LIG1       -0.1253
     26 N          10.9917    4.5417    0.0003 N.ar    1  LIG1       -0.1339
     27 N          10.1395    2.3418    0.0002 N.ar    1  LIG1       -0.1339
     28 H          12.1467    2.8289    0.0002 H       1  LIG1        0.1085
@<TRIPOS>BOND
     1     7     1    1
     2     1     2   ar
     3     1     4   ar
     4     2     5   ar
     5     4     6   ar
     6     5     3   ar
     7     6     3   ar
     8    22    25   ar
     9    22    18    1
    10    22    23   ar
    11    19    18   ar
    12    19    15   ar
    13    25    27   ar
    14     3     8    1
    15    12     8   ar
    16    12    11   ar
    17    13     9    1
    18    18    17   ar
    19     9     8   ar
    20     9    10   ar
    21    11    15    1
    22    11    10   ar
    23    15    16   ar
    24    27    24   ar
    25    23    26   ar
    26    28    24    1
    27    17    16   ar
    28    17    21    1
    29    16    20    1
    30    26    24   ar
    31    10    14    1
