@<TRIPOS>MOLECULE
mol_data/opt/m06hf/geoms/mol2/812-4-13-.out
 33 36 0 0 0
SMALL
GASTEIGER

@<TRIPOS>ATOM
      1 C          -0.3397    0.0585    0.1588 C.ar    1  LIG1        0.1605
      2 N           0.9860   -0.0239    0.1803 N.ar    1  LIG1       -0.1338
      3 C           0.9751    2.2229    0.0308 C.ar    1  LIG1        0.2381
      4 N          -1.0310    1.1952    0.0735 N.ar    1  LIG1       -0.1338
      5 N           1.6656    1.0840    0.1149 N.ar    1  LIG1       -0.1226
      6 N          -0.3606    2.3026    0.0078 N.ar    1  LIG1       -0.1226
      7 H          -0.9005   -0.8623    0.2146 H       1  LIG1        0.1085
      8 C           1.7063    3.4842   -0.0421 C.ar    1  LIG1        0.1760
      9 C           1.2745    4.7719   -0.1392 C.ar    1  LIG1       -0.0120
     10 C           2.4567    5.5726   -0.1669 C.ar    1  LIG1       -0.0151
     11 C           3.5101    4.7035   -0.0852 C.ar    1  LIG1        0.1358
     12 O           3.0512    3.4398   -0.0104 O.2     1  LIG1       -0.4516
     13 H           0.2471    5.0904   -0.1818 H       1  LIG1        0.0657
     14 H           2.5102    6.6451   -0.2318 H       1  LIG1        0.0656
     15 C           5.5338    6.1511   -0.2014 C.ar    1  LIG1       -0.0505
     16 C           6.9104    6.3106   -0.1769 C.ar    1  LIG1       -0.0520
     17 C           4.9682    4.8807   -0.0575 C.ar    1  LIG1        0.0173
     18 C           7.7527    5.2083    0.0081 C.ar    1  LIG1       -0.0017
     19 H           7.3470    7.2898   -0.3232 H       1  LIG1        0.0624
     20 C           5.8017    3.7743    0.1203 C.ar    1  LIG1       -0.0505
     21 C           7.1795    3.9416    0.1617 C.ar    1  LIG1       -0.0520
     22 H           5.3643    2.7919    0.2412 H       1  LIG1        0.0625
     23 H           4.8983    7.0138   -0.3525 H       1  LIG1        0.0625
     24 H           7.8131    3.0834    0.3490 H       1  LIG1        0.0624
     25 C           9.2136    5.3936    0.0419 C.ar    1  LIG1        0.0465
     26 C           9.9789    6.4377    0.5180 C.ar    1  LIG1       -0.0364
     27 C          11.3435    6.0927    0.3183 C.ar    1  LIG1       -0.0438
     28 C          11.3651    4.8529   -0.2749 C.ar    1  LIG1        0.0022
     29 N          10.0751    4.4390   -0.4287 N.ar    1  LIG1       -0.3607
     30 H           9.7849    3.6000   -0.9049 H       1  LIG1        0.1653
     31 H          12.1883    4.2411   -0.6004 H       1  LIG1        0.0807
     32 H           9.5948    7.3262    0.9911 H       1  LIG1        0.0639
     33 H          12.2059    6.6789    0.5863 H       1  LIG1        0.0633
@<TRIPOS>BOND
     1    30    29    1
     2    31    28    1
     3    29    28   ar
     4    29    25   ar
     5    23    15    1
     6    19    16    1
     7    28    27   ar
     8    14    10    1
     9    15    16   ar
    10    15    17   ar
    11    13     9    1
    12    16    18   ar
    13    10     9   ar
    14    10    11   ar
    15     9     8   ar
    16    11    17    1
    17    11    12   ar
    18    17    20   ar
    19     8    12   ar
    20     8     3    1
    21     6     3   ar
    22     6     4   ar
    23    18    25    1
    24    18    21   ar
    25     3     5   ar
    26    25    26   ar
    27     4     1   ar
    28     5     2   ar
    29    20    21   ar
    30    20    22    1
    31     1     2   ar
    32     1     7    1
    33    21    24    1
    34    27    26   ar
    35    27    33    1
    36    26    32    1
