@<TRIPOS>MOLECULE
mol_data/opt/m06hf/geoms/mol2/812-.out
 15 16 0 0 0
SMALL
GASTEIGER

@<TRIPOS>ATOM
      1 C          -0.0369    0.0425    0.0000 C.ar    1  LIG1        0.1605
      2 N           1.2916    0.0118    0.0000 N.ar    1  LIG1       -0.1338
      3 C           1.1919    2.2607   -0.0000 C.ar    1  LIG1        0.2380
      4 N          -0.7723    1.1537   -0.0000 N.ar    1  LIG1       -0.1338
      5 N           1.9265    1.1476    0.0000 N.ar    1  LIG1       -0.1226
      6 N          -0.1456    2.2883   -0.0001 N.ar    1  LIG1       -0.1226
      7 H          -0.5595   -0.9022    0.0000 H       1  LIG1        0.1085
      8 C           1.8672    3.5581    0.0000 C.ar    1  LIG1        0.1751
      9 C           1.3666    4.8231    0.0000 C.ar    1  LIG1       -0.0126
     10 C           2.5092    5.6870    0.0000 C.ar    1  LIG1       -0.0232
     11 C           3.5925    4.8660    0.0000 C.ar    1  LIG1        0.0927
     12 O           3.2126    3.5784    0.0001 O.2     1  LIG1       -0.4597
     13 H           4.6525    5.0493    0.0001 H       1  LIG1        0.1029
     14 H           0.3225    5.0863   -0.0000 H       1  LIG1        0.0656
     15 H           2.5194    6.7627    0.0000 H       1  LIG1        0.0649
@<TRIPOS>BOND
     1     6     3   ar
     2     6     4   ar
     3     3     8    1
     4     3     5   ar
     5     4     1   ar
     6    14     9    1
     7     8     9   ar
     8     8    12   ar
     9     1     7    1
    10     1     2   ar
    11     9    10   ar
    12     5     2   ar
    13    15    10    1
    14    10    11   ar
    15    11    13    1
    16    11    12   ar
