@<TRIPOS>MOLECULE
mol_data/opt/m06hf/geoms/mol2/812-13-.out
 23 25 0 0 0
SMALL
GASTEIGER

@<TRIPOS>ATOM
      1 C          -0.1035    0.0185    0.0001 C.ar    1  LIG1        0.1605
      2 N           1.2248   -0.0106   -0.0000 N.ar    1  LIG1       -0.1338
      3 C           1.1216    2.2398    0.0000 C.ar    1  LIG1        0.2381
      4 N          -0.8408    1.1297    0.0002 N.ar    1  LIG1       -0.1338
      5 N           1.8580    1.1265   -0.0001 N.ar    1  LIG1       -0.1226
      6 N          -0.2180    2.2656    0.0002 N.ar    1  LIG1       -0.1226
      7 H          -0.6256   -0.9262    0.0002 H       1  LIG1        0.1085
      8 C           1.8033    3.5277   -0.0000 C.ar    1  LIG1        0.1760
      9 C           1.3329    4.8048    0.0001 C.ar    1  LIG1       -0.0120
     10 C           2.4863    5.6486   -0.0000 C.ar    1  LIG1       -0.0137
     11 C           3.5646    4.8098   -0.0002 C.ar    1  LIG1        0.1519
     12 O           3.1541    3.5262   -0.0001 O.2     1  LIG1       -0.4501
     13 H           0.2949    5.0906    0.0003 H       1  LIG1        0.0657
     14 H           2.5149    6.7242   -0.0000 H       1  LIG1        0.0656
     15 C           5.0040    5.0100   -0.0003 C.ar    1  LIG1        0.0821
     16 C           5.7738    6.1551   -0.0003 C.ar    1  LIG1       -0.0334
     17 C           7.1309    5.7401   -0.0002 C.ar    1  LIG1       -0.0437
     18 C           7.1372    4.3623   -0.0007 C.ar    1  LIG1        0.0023
     19 N           5.8465    3.9351   -0.0005 N.ar    1  LIG1       -0.3583
     20 H           5.5288    2.9769   -0.0006 H       1  LIG1        0.1654
     21 H           7.9554    3.6631   -0.0010 H       1  LIG1        0.0807
     22 H           5.3994    7.1654   -0.0002 H       1  LIG1        0.0640
     23 H           8.0003    6.3749    0.0001 H       1  LIG1        0.0633
@<TRIPOS>BOND
     1    21    18    1
     2    18    19   ar
     3    18    17   ar
     4    20    19    1
     5    19    15   ar
     6    16    15   ar
     7    16    22    1
     8    16    17   ar
     9    15    11    1
    10    17    23    1
    11    11    12   ar
    12    11    10   ar
    13    12     8   ar
    14     5     2   ar
    15     5     3   ar
    16    14    10    1
    17    10     9   ar
    18     2     1   ar
    19     8     3    1
    20     8     9   ar
    21     3     6   ar
    22     9    13    1
    23     1     7    1
    24     1     4   ar
    25     6     4   ar
