@<TRIPOS>MOLECULE
mol_data/opt/m06hf/geoms/mol2/812-12-8.out
 28 31 0 0 0
SMALL
GASTEIGER

@<TRIPOS>ATOM
      1 C          -0.5263    0.1776   -0.0001 C.ar    1  LIG1        0.1605
      2 N           0.7931    0.0174   -0.0001 N.ar    1  LIG1       -0.1338
      3 C           0.9121    2.2636   -0.0000 C.ar    1  LIG1        0.2381
      4 N          -1.1505    1.3552    0.0000 N.ar    1  LIG1       -0.1338
      5 N           1.5360    1.0854   -0.0001 N.ar    1  LIG1       -0.1226
      6 N          -0.4158    2.4231    0.0000 N.ar    1  LIG1       -0.1226
      7 H          -1.1390   -0.7111   -0.0001 H       1  LIG1        0.1085
      8 C           1.7088    3.4900    0.0000 C.ar    1  LIG1        0.1761
      9 C           1.3265    4.7979    0.0002 C.ar    1  LIG1       -0.0119
     10 C           2.5372    5.5528    0.0000 C.ar    1  LIG1       -0.0121
     11 C           3.5471    4.6322    0.0001 C.ar    1  LIG1        0.1707
     12 O           3.0497    3.3859    0.0001 O.2     1  LIG1       -0.4485
     13 H           0.3118    5.1562    0.0002 H       1  LIG1        0.0657
     14 H           2.6448    6.6237    0.0000 H       1  LIG1        0.0657
     15 C           4.9952    4.7823    0.0000 C.ar    1  LIG1        0.1707
     16 C           5.7948    5.8903    0.0000 C.ar    1  LIG1       -0.0121
     17 C           7.1346    5.3997   -0.0000 C.ar    1  LIG1       -0.0119
     18 C           7.0286    4.0412   -0.0000 C.ar    1  LIG1        0.1761
     19 O           5.7375    3.6644    0.0000 O.2     1  LIG1       -0.4485
     20 H           5.4699    6.9164    0.0000 H       1  LIG1        0.0657
     21 H           8.0543    5.9585   -0.0001 H       1  LIG1        0.0657
     22 C           8.0598    3.0043   -0.0001 C.ar    1  LIG1        0.2381
     23 N           7.6907    1.7232    0.0000 N.ar    1  LIG1       -0.1226
     24 C           9.8953    1.2575    0.0003 C.ar    1  LIG1        0.1605
     25 N           9.3267    3.4326   -0.0001 N.ar    1  LIG1       -0.1226
     26 N           8.6368    0.8301    0.0001 N.ar    1  LIG1       -0.1338
     27 N          10.2648    2.5381    0.0000 N.ar    1  LIG1       -0.1338
     28 H          10.6773    0.5133   -0.0000 H       1  LIG1        0.1085
@<TRIPOS>BOND
     1    22    25   ar
     2    22    18    1
     3    22    23   ar
     4     2     5   ar
     5     2     1   ar
     6     5     3   ar
     7    25    27   ar
     8    21    17    1
     9     7     1    1
    10     1     4   ar
    11    18    17   ar
    12    18    19   ar
    13    28    24    1
    14    17    16   ar
    15     3     8    1
    16     3     6   ar
    17    16    20    1
    18    16    15   ar
    19     4     6   ar
    20    27    24   ar
    21    15    19   ar
    22    15    11    1
    23    14    10    1
    24    23    26   ar
    25     8    12   ar
    26     8     9   ar
    27    10    11   ar
    28    10     9   ar
    29    12    11   ar
    30    26    24   ar
    31     9    13    1
