@<TRIPOS>MOLECULE
mol_data/opt/m06hf/geoms/mol2/812-1212-.out
 29 32 0 0 0
SMALL
GASTEIGER

@<TRIPOS>ATOM
      1 C          -0.1521   -0.0014   -0.0000 C.ar    1  LIG1        0.1605
      2 N           1.1756   -0.0491   -0.0001 N.ar    1  LIG1       -0.1338
      3 C           1.1036    2.2012   -0.0001 C.ar    1  LIG1        0.2381
      4 N          -0.8738    1.1196    0.0001 N.ar    1  LIG1       -0.1338
      5 N           1.8246    1.0787   -0.0001 N.ar    1  LIG1       -0.1226
      6 N          -0.2339    2.2465    0.0000 N.ar    1  LIG1       -0.1226
      7 H          -0.6868   -0.9391    0.0000 H       1  LIG1        0.1085
      8 C           1.8003    3.4844   -0.0000 C.ar    1  LIG1        0.1761
      9 C           1.3330    4.7640    0.0001 C.ar    1  LIG1       -0.0119
     10 C           2.4912    5.6012   -0.0001 C.ar    1  LIG1       -0.0121
     11 C           3.5592    4.7504    0.0000 C.ar    1  LIG1        0.1707
     12 O           3.1482    3.4719   -0.0000 O.2     1  LIG1       -0.4485
     13 H           0.2963    5.0545    0.0002 H       1  LIG1        0.0657
     14 H           2.5374    6.6759   -0.0001 H       1  LIG1        0.0657
     15 C           4.9918    4.9722    0.0000 C.ar    1  LIG1        0.1707
     16 C           6.0507    4.1186    0.0000 C.ar    1  LIG1       -0.0121
     17 C           7.2195    4.9482    0.0001 C.ar    1  LIG1       -0.0121
     18 C           6.7646    6.2311   -0.0000 C.ar    1  LIG1        0.1707
     19 O           5.4150    6.2553   -0.0001 O.2     1  LIG1       -0.4486
     20 H           5.9950    3.0435    0.0000 H       1  LIG1        0.0657
     21 H           8.2513    4.6428    0.0003 H       1  LIG1        0.0657
     22 C           7.4447    7.5143   -0.0001 C.ar    1  LIG1        0.1697
     23 C           6.9969    8.7975   -0.0002 C.ar    1  LIG1       -0.0128
     24 C           8.1775    9.6180   -0.0000 C.ar    1  LIG1       -0.0232
     25 C           9.2277    8.7615   -0.0001 C.ar    1  LIG1        0.0927
     26 O           8.7931    7.4837    0.0001 O.2     1  LIG1       -0.4598
     27 H          10.2938    8.9031   -0.0001 H       1  LIG1        0.1029
     28 H           5.9675    9.1111   -0.0003 H       1  LIG1        0.0656
     29 H           8.2264   10.6930   -0.0000 H       1  LIG1        0.0649
@<TRIPOS>BOND
     1    28    23    1
     2    23    22   ar
     3    23    24   ar
     4     5     2   ar
     5     5     3   ar
     6    25    27    1
     7    25    24   ar
     8    25    26   ar
     9    14    10    1
    10     2     1   ar
    11     3     8    1
    12     3     6   ar
    13    19    18   ar
    14    19    15   ar
    15    10    11   ar
    16    10     9   ar
    17    22    18    1
    18    22    26   ar
    19    24    29    1
    20     8    12   ar
    21     8     9   ar
    22    18    17   ar
    23     1     7    1
    24     1     4   ar
    25    12    11   ar
    26    11    15    1
    27    15    16   ar
    28    16    20    1
    29    16    17   ar
    30     6     4   ar
    31     9    13    1
    32    17    21    1
