@<TRIPOS>MOLECULE
mol_data/opt/m06hf/geoms/mol2/812-124-.out
 32 35 0 0 0
SMALL
GASTEIGER

@<TRIPOS>ATOM
      1 C          -0.1816   -0.0231    0.0007 C.ar    1  LIG1        0.1605
      2 N           1.1458   -0.0741    0.0006 N.ar    1  LIG1       -0.1338
      3 C           1.0790    2.1765    0.0001 C.ar    1  LIG1        0.2381
      4 N          -0.9011    1.0994    0.0005 N.ar    1  LIG1       -0.1338
      5 N           1.7977    1.0524    0.0003 N.ar    1  LIG1       -0.1226
      6 N          -0.2584    2.2250    0.0002 N.ar    1  LIG1       -0.1226
      7 H          -0.7187   -0.9596    0.0009 H       1  LIG1        0.1085
      8 C           1.7792    3.4576   -0.0001 C.ar    1  LIG1        0.1761
      9 C           1.3143    4.7382   -0.0002 C.ar    1  LIG1       -0.0119
     10 C           2.4737    5.5732   -0.0006 C.ar    1  LIG1       -0.0121
     11 C           3.5407    4.7211   -0.0003 C.ar    1  LIG1        0.1707
     12 O           3.1273    3.4431   -0.0001 O.2     1  LIG1       -0.4485
     13 H           0.2782    5.0303   -0.0002 H       1  LIG1        0.0657
     14 H           2.5205    6.6480   -0.0009 H       1  LIG1        0.0657
     15 C           4.9739    4.9405   -0.0004 C.ar    1  LIG1        0.1706
     16 C           6.0313    4.0856   -0.0001 C.ar    1  LIG1       -0.0122
     17 C           7.1972    4.9167   -0.0003 C.ar    1  LIG1       -0.0151
     18 C           6.7545    6.2071   -0.0007 C.ar    1  LIG1        0.1358
     19 O           5.4008    6.2197   -0.0007 O.2     1  LIG1       -0.4517
     20 H           5.9762    3.0105    0.0001 H       1  LIG1        0.0657
     21 H           8.2218    4.5882   -0.0001 H       1  LIG1        0.0656
     22 C           6.6869    8.6913   -0.0015 C.ar    1  LIG1       -0.0511
     23 C           7.3312    9.9239   -0.0018 C.ar    1  LIG1       -0.0611
     24 C           7.4347    7.5113   -0.0010 C.ar    1  LIG1        0.0173
     25 C           8.7218    9.9889   -0.0016 C.ar    1  LIG1       -0.0617
     26 H           6.7458   10.8338   -0.0022 H       1  LIG1        0.0618
     27 C           8.8309    7.5783   -0.0008 C.ar    1  LIG1       -0.0511
     28 C           9.4689    8.8123   -0.0011 C.ar    1  LIG1       -0.0611
     29 H           9.4165    6.6684   -0.0004 H       1  LIG1        0.0625
     30 H           9.2206   10.9489   -0.0019 H       1  LIG1        0.0618
     31 H           5.6069    8.6350   -0.0016 H       1  LIG1        0.0625
     32 H          10.5500    8.8556   -0.0010 H       1  LIG1        0.0618
@<TRIPOS>BOND
     1    26    23    1
     2    30    25    1
     3    23    25   ar
     4    23    22   ar
     5    25    28   ar
     6    31    22    1
     7    22    24   ar
     8    28    32    1
     9    28    27   ar
    10    24    27   ar
    11    24    18    1
    12    14    10    1
    13    27    29    1
    14    19    18   ar
    15    19    15   ar
    16    18    17   ar
    17    10    11   ar
    18    10     9   ar
    19    15    11    1
    20    15    16   ar
    21    11    12   ar
    22    17    21    1
    23    17    16   ar
    24    13     9    1
    25     9     8   ar
    26    16    20    1
    27     8    12   ar
    28     8     3    1
    29     3     6   ar
    30     3     5   ar
    31     6     4   ar
    32     5     2   ar
    33     4     1   ar
    34     2     1   ar
    35     1     7    1
