@<TRIPOS>MOLECULE
mol_data/opt/m06hf/geoms/mol2/812-5-.out
 22 24 0 0 0
SMALL
GASTEIGER

@<TRIPOS>ATOM
      1 C          -0.1263    0.0283   -0.0001 C.ar    1  LIG1        0.1605
      2 N           1.2020   -0.0154    0.0000 N.ar    1  LIG1       -0.1338
      3 C           1.1227    2.2345    0.0000 C.ar    1  LIG1        0.2381
      4 N          -0.8516    1.1466   -0.0002 N.ar    1  LIG1       -0.1338
      5 N           1.8474    1.1145    0.0001 N.ar    1  LIG1       -0.1226
      6 N          -0.2155    2.2759   -0.0002 N.ar    1  LIG1       -0.1226
      7 H          -0.6586   -0.9107   -0.0002 H       1  LIG1        0.1085
      8 C           1.8152    3.5197    0.0001 C.ar    1  LIG1        0.1760
      9 C           1.3410    4.7959   -0.0000 C.ar    1  LIG1       -0.0120
     10 C           2.4941    5.6386    0.0001 C.ar    1  LIG1       -0.0146
     11 C           3.5732    4.7992    0.0002 C.ar    1  LIG1        0.1424
     12 O           3.1623    3.5178    0.0002 O.2     1  LIG1       -0.4511
     13 H           0.3028    5.0804   -0.0001 H       1  LIG1        0.0657
     14 H           2.5188    6.7146    0.0001 H       1  LIG1        0.0656
     15 C           5.0134    5.0242    0.0004 C.ar    1  LIG1        0.0544
     16 C           5.6722    6.2219    0.0004 C.ar    1  LIG1       -0.0440
     17 C           7.0926    6.0608    0.0005 C.ar    1  LIG1       -0.0540
     18 C           7.4640    4.7508    0.0004 C.ar    1  LIG1       -0.0236
     19 S           6.1113    3.6919    0.0005 S.2     1  LIG1       -0.0936
     20 H           8.4625    4.3443    0.0005 H       1  LIG1        0.0693
     21 H           5.1701    7.1782    0.0004 H       1  LIG1        0.0630
     22 H           7.7926    6.8829    0.0005 H       1  LIG1        0.0623
@<TRIPOS>BOND
     1     4     6   ar
     2     4     1   ar
     3     7     1    1
     4     6     3   ar
     5     1     2   ar
     6    13     9    1
     7     9     8   ar
     8     9    10   ar
     9     2     5   ar
    10     3     8    1
    11     3     5   ar
    12     8    12   ar
    13    14    10    1
    14    10    11   ar
    15    12    11   ar
    16    11    15    1
    17    15    16   ar
    18    15    19   ar
    19    21    16    1
    20    16    17   ar
    21    18    20    1
    22    18    17   ar
    23    18    19   ar
    24    17    22    1
