@<TRIPOS>MOLECULE
mol_data/opt/m06hf/geoms/mol2/812-8.out
 21 23 0 0 0
SMALL
GASTEIGER

@<TRIPOS>ATOM
      1 C          -0.2093    0.0526    0.0000 C.ar    1  LIG1        0.1605
      2 N           1.1167   -0.0428    0.0001 N.ar    1  LIG1       -0.1338
      3 C           1.1222    2.2053    0.0001 C.ar    1  LIG1        0.2381
      4 N          -0.8919    1.1972   -0.0000 N.ar    1  LIG1       -0.1338
      5 N           1.8054    1.0613    0.0001 N.ar    1  LIG1       -0.1226
      6 N          -0.2106    2.3004   -0.0000 N.ar    1  LIG1       -0.1226
      7 H          -0.7762   -0.8662   -0.0000 H       1  LIG1        0.1085
      8 C           1.8580    3.4725    0.0000 C.ar    1  LIG1        0.1761
      9 C           1.4090    4.7600   -0.0001 C.ar    1  LIG1       -0.0119
     10 C           2.5820    5.5727    0.0000 C.ar    1  LIG1       -0.0119
     11 C           3.6297    4.6999    0.0000 C.ar    1  LIG1        0.1761
     12 O           3.1986    3.4298    0.0000 O.2     1  LIG1       -0.4483
     13 H           0.3775    5.0675   -0.0001 H       1  LIG1        0.0657
     14 H           2.6566    6.6464    0.0001 H       1  LIG1        0.0657
     15 C           5.0746    4.9435    0.0001 C.ar    1  LIG1        0.2381
     16 N           5.9056    3.9019    0.0000 N.ar    1  LIG1       -0.1226
     17 C           7.5579    5.4337   -0.0001 C.ar    1  LIG1        0.1605
     18 N           5.4539    6.2247    0.0001 N.ar    1  LIG1       -0.1226
     19 N           7.1813    4.1588   -0.0000 N.ar    1  LIG1       -0.1338
     20 N           6.7261    6.4750    0.0000 N.ar    1  LIG1       -0.1338
     21 H           8.6173    5.6416    0.0000 H       1  LIG1        0.1085
@<TRIPOS>BOND
     1    13     9    1
     2    17    19   ar
     3    17    20   ar
     4    17    21    1
     5     9     8   ar
     6     9    10   ar
     7     4     6   ar
     8     4     1   ar
     9    19    16   ar
    10     7     1    1
    11     6     3   ar
    12    16    15   ar
    13     1     2   ar
    14    12     8   ar
    15    12    11   ar
    16     8     3    1
    17    11    10   ar
    18    11    15    1
    19    20    18   ar
    20    10    14    1
    21     2     5   ar
    22    15    18   ar
    23     3     5   ar
