@<TRIPOS>MOLECULE
mol_data/opt/m06hf/geoms/mol2/812.out
 15 16 0 0 0
SMALL
GASTEIGER

@<TRIPOS>ATOM
      1 C           0.0562   -0.0040    0.0000 C.ar    1  LIG1        0.1605
      2 N           1.3864    0.0741   -0.0000 N.ar    1  LIG1       -0.1338
      3 C           1.0939    2.3097   -0.0001 C.ar    1  LIG1        0.2380
      4 N          -0.7653    1.0405   -0.0000 N.ar    1  LIG1       -0.1338
      5 N           1.9183    1.2561   -0.0000 N.ar    1  LIG1       -0.1226
      6 N          -0.2374    2.2298   -0.0001 N.ar    1  LIG1       -0.1226
      7 H          -0.3863   -0.9888    0.0000 H       1  LIG1        0.1085
      8 C           1.7268    3.6282   -0.0001 C.ar    1  LIG1        0.1751
      9 C           3.0393    3.9866    0.0000 C.ar    1  LIG1       -0.0126
     10 C           3.0451    5.4190   -0.0000 C.ar    1  LIG1       -0.0232
     11 C           1.7384    5.7933   -0.0001 C.ar    1  LIG1        0.0927
     12 O           0.9360    4.7169   -0.0000 O.2     1  LIG1       -0.4597
     13 H           1.2492    6.7514   -0.0002 H       1  LIG1        0.1029
     14 H           3.8762    3.3091    0.0001 H       1  LIG1        0.0656
     15 H           3.8997    6.0724    0.0000 H       1  LIG1        0.0649
@<TRIPOS>BOND
     1    13    11    1
     2    11    12   ar
     3    11    10   ar
     4     3     6   ar
     5     3     8    1
     6     3     5   ar
     7     6     4   ar
     8     8    12   ar
     9     8     9   ar
    10     5     2   ar
    11     4     1   ar
    12     2     1   ar
    13    10    15    1
    14    10     9   ar
    15     7     1    1
    16     9    14    1
