@<TRIPOS>MOLECULE
mol_data/opt/m06hf/geoms/mol2/81212.out
 22 24 0 0 0
SMALL
GASTEIGER

@<TRIPOS>ATOM
      1 C           0.1694   -0.1377    0.0000 C.ar    1  LIG1        0.1605
      2 N           1.4954   -0.0026    0.0000 N.ar    1  LIG1       -0.1338
      3 C           1.1055    2.2180   -0.0001 C.ar    1  LIG1        0.2381
      4 N          -0.6968    0.8701   -0.0001 N.ar    1  LIG1       -0.1338
      5 N           1.9758    1.2010    0.0000 N.ar    1  LIG1       -0.1226
      6 N          -0.2216    2.0816   -0.0001 N.ar    1  LIG1       -0.1226
      7 H          -0.2299   -1.1407   -0.0000 H       1  LIG1        0.1085
      8 C           1.6803    3.5607   -0.0000 C.ar    1  LIG1        0.1761
      9 C           2.9773    3.9762    0.0001 C.ar    1  LIG1       -0.0119
     10 C           2.9255    5.4025   -0.0001 C.ar    1  LIG1       -0.0121
     11 C           1.5979    5.7256   -0.0001 C.ar    1  LIG1        0.1707
     12 O           0.8435    4.6154   -0.0001 O.2     1  LIG1       -0.4485
     13 H           3.8426    3.3360    0.0002 H       1  LIG1        0.0657
     14 H           3.7526    6.0912   -0.0001 H       1  LIG1        0.0657
     15 C           0.9061    7.0074   -0.0001 C.ar    1  LIG1        0.1697
     16 C           1.3623    8.2900   -0.0001 C.ar    1  LIG1       -0.0128
     17 C           0.1896    9.1179   -0.0001 C.ar    1  LIG1       -0.0232
     18 C          -0.8654    8.2657   -0.0002 C.ar    1  LIG1        0.0927
     19 O          -0.4402    6.9886   -0.0001 O.2     1  LIG1       -0.4598
     20 H          -1.9307    8.4121   -0.0003 H       1  LIG1        0.1029
     21 H           2.3919    8.6056   -0.0001 H       1  LIG1        0.0656
     22 H           0.1480   10.1932   -0.0000 H       1  LIG1        0.0649
@<TRIPOS>BOND
     1    20    18    1
     2    18    19   ar
     3    18    17   ar
     4    16    21    1
     5    16    15   ar
     6    16    17   ar
     7    19    15   ar
     8    15    11    1
     9     6     3   ar
    10     6     4   ar
    11     3     8    1
    12     3     5   ar
    13     4     1   ar
    14    17    22    1
    15    14    10    1
    16    12    11   ar
    17    12     8   ar
    18    11    10   ar
    19    10     9   ar
    20     8     9   ar
    21     7     1    1
    22     5     2   ar
    23     1     2   ar
    24     9    13    1
