@<TRIPOS>MOLECULE
mol_data/opt/m06hf/geoms/mol2/81212-13-.out
 30 33 0 0 0
SMALL
GASTEIGER

@<TRIPOS>ATOM
      1 C           0.1025   -0.1387    0.0002 C.ar    1  LIG1        0.1605
      2 N           1.4319   -0.0372    0.0002 N.ar    1  LIG1       -0.1338
      3 C           1.0994    2.1922    0.0001 C.ar    1  LIG1        0.2381
      4 N          -0.7376    0.8903    0.0002 N.ar    1  LIG1       -0.1338
      5 N           1.9435    1.1537    0.0001 N.ar    1  LIG1       -0.1226
      6 N          -0.2308    2.0892    0.0001 N.ar    1  LIG1       -0.1226
      7 H          -0.3219   -1.1315    0.0003 H       1  LIG1        0.1085
      8 C           1.7010    3.5222   -0.0000 C.ar    1  LIG1        0.1761
      9 C           3.0035    3.9209   -0.0001 C.ar    1  LIG1       -0.0119
     10 C           2.9736    5.3492   -0.0002 C.ar    1  LIG1       -0.0121
     11 C           1.6508    5.6904   -0.0001 C.ar    1  LIG1        0.1707
     12 O           0.8789    4.5912   -0.0001 O.2     1  LIG1       -0.4485
     13 H           3.8599    3.2686   -0.0001 H       1  LIG1        0.0657
     14 H           3.8055    6.0308   -0.0002 H       1  LIG1        0.0657
     15 C           0.9639    6.9661   -0.0002 C.ar    1  LIG1        0.1706
     16 C          -0.3533    7.2994   -0.0001 C.ar    1  LIG1       -0.0121
     17 C          -0.3966    8.7323   -0.0002 C.ar    1  LIG1       -0.0137
     18 C           0.8993    9.1514   -0.0003 C.ar    1  LIG1        0.1519
     19 O           1.7318    8.0818   -0.0003 O.2     1  LIG1       -0.4503
     20 H          -1.1784    6.6078   -0.0001 H       1  LIG1        0.0657
     21 H          -1.2691    9.3618   -0.0002 H       1  LIG1        0.0656
     22 C           1.5355   10.4596   -0.0004 C.ar    1  LIG1        0.0821
     23 C           1.0069   11.7335   -0.0004 C.ar    1  LIG1       -0.0334
     24 C           2.1015   12.6373   -0.0002 C.ar    1  LIG1       -0.0437
     25 C           3.2538   11.8843   -0.0006 C.ar    1  LIG1        0.0023
     26 N           2.8966   10.5707   -0.0005 N.ar    1  LIG1       -0.3583
     27 H           3.5214    9.7799   -0.0006 H       1  LIG1        0.1654
     28 H           4.2878   12.1813   -0.0007 H       1  LIG1        0.0807
     29 H          -0.0416   11.9797   -0.0003 H       1  LIG1        0.0640
     30 H           2.0499   13.7125   -0.0001 H       1  LIG1        0.0633
@<TRIPOS>BOND
     1    28    25    1
     2    25    26   ar
     3    25    24   ar
     4    27    26    1
     5    26    22   ar
     6    23    22   ar
     7    23    29    1
     8    23    24   ar
     9    22    18    1
    10    18    19   ar
    11    18    17   ar
    12    19    15   ar
    13    21    17    1
    14    14    10    1
    15    17    16   ar
    16    24    30    1
    17    15    11    1
    18    15    16   ar
    19    10    11   ar
    20    10     9   ar
    21    11    12   ar
    22    16    20    1
    23    13     9    1
    24     9     8   ar
    25    12     8   ar
    26     8     3    1
    27     3     5   ar
    28     3     6   ar
    29     5     2   ar
    30     6     4   ar
    31     2     1   ar
    32     4     1   ar
    33     1     7    1
