@<TRIPOS>MOLECULE
mol_data/opt/m06hf/geoms/mol2/8128-12.out
 28 31 0 0 0
SMALL
GASTEIGER

@<TRIPOS>ATOM
      1 C           0.3927   -0.2703   -0.0001 C.ar    1  LIG1        0.1605
      2 N           1.7069   -0.0468   -0.0001 N.ar    1  LIG1       -0.1338
      3 C           1.1678    2.1409    0.0001 C.ar    1  LIG1        0.2381
      4 N          -0.5395    0.6767    0.0000 N.ar    1  LIG1       -0.1338
      5 N           2.1044    1.1873   -0.0000 N.ar    1  LIG1       -0.1226
      6 N          -0.1460    1.9176    0.0001 N.ar    1  LIG1       -0.1226
      7 H           0.0632   -1.2982   -0.0000 H       1  LIG1        0.1085
      8 C           1.6584    3.5204    0.0000 C.ar    1  LIG1        0.1761
      9 C           2.9341    4.0033   -0.0001 C.ar    1  LIG1       -0.0119
     10 C           2.8050    5.4237    0.0001 C.ar    1  LIG1       -0.0119
     11 C           1.4624    5.6682   -0.0000 C.ar    1  LIG1        0.1761
     12 O           0.7648    4.5221   -0.0001 O.2     1  LIG1       -0.4483
     13 H           3.8317    3.4093   -0.0002 H       1  LIG1        0.0657
     14 H           3.5808    6.1693    0.0002 H       1  LIG1        0.0657
     15 C           0.7301    6.9361   -0.0001 C.ar    1  LIG1        0.2381
     16 N          -0.6009    6.9230   -0.0001 N.ar    1  LIG1       -0.1219
     17 C          -0.4720    9.1746   -0.0000 C.ar    1  LIG1        0.2381
     18 N           1.4782    8.0461    0.0000 N.ar    1  LIG1       -0.1219
     19 N          -1.2161    8.0687   -0.0001 N.ar    1  LIG1       -0.1219
     20 N           0.8691    9.1840    0.0001 N.ar    1  LIG1       -0.1219
     21 C          -1.1314   10.4775   -0.0001 C.ar    1  LIG1        0.1751
     22 C          -0.6178   11.7382   -0.0001 C.ar    1  LIG1       -0.0126
     23 C          -1.7519   12.6133   -0.0002 C.ar    1  LIG1       -0.0232
     24 C          -2.8435   11.8029   -0.0002 C.ar    1  LIG1        0.0927
     25 O          -2.4760   10.5115   -0.0003 O.2     1  LIG1       -0.4597
     26 H          -3.9016   11.9957   -0.0002 H       1  LIG1        0.1029
     27 H           0.4282   11.9927   -0.0001 H       1  LIG1        0.0656
     28 H          -1.7500   13.6896   -0.0002 H       1  LIG1        0.0649
@<TRIPOS>BOND
     1    25    24   ar
     2    25    21   ar
     3    28    23    1
     4    23    24   ar
     5    23    22   ar
     6    13     9    1
     7    26    24    1
     8     9     8   ar
     9     9    10   ar
    10    16    19   ar
    11    16    15   ar
    12    19    17   ar
    13    22    21   ar
    14    22    27    1
    15     1     2   ar
    16     1     7    1
    17     1     4   ar
    18    21    17    1
    19     2     5   ar
    20    12    11   ar
    21    12     8   ar
    22    15    11    1
    23    15    18   ar
    24    11    10   ar
    25     5     3   ar
    26    17    20   ar
    27     8     3    1
    28     4     6   ar
    29    18    20   ar
    30    10    14    1
    31     6     3   ar
