@<TRIPOS>MOLECULE
mol_data/opt/m06hf/geoms/mol2/8128-.out
 21 23 0 0 0
SMALL
GASTEIGER

@<TRIPOS>ATOM
      1 C           0.1671   -0.1354   -0.0000 C.ar    1  LIG1        0.1605
      2 N           1.4924    0.0045   -0.0000 N.ar    1  LIG1       -0.1338
      3 C           1.0916    2.2208    0.0000 C.ar    1  LIG1        0.2381
      4 N          -0.7043    0.8686   -0.0000 N.ar    1  LIG1       -0.1338
      5 N           1.9668    1.2113   -0.0000 N.ar    1  LIG1       -0.1226
      6 N          -0.2336    2.0817    0.0000 N.ar    1  LIG1       -0.1226
      7 H          -0.2284   -1.1400   -0.0000 H       1  LIG1        0.1085
      8 C           1.6644    3.5695   -0.0000 C.ar    1  LIG1        0.1761
      9 C           2.9640    3.9827   -0.0000 C.ar    1  LIG1       -0.0119
     10 C           2.9105    5.4087    0.0000 C.ar    1  LIG1       -0.0119
     11 C           1.5838    5.7235   -0.0000 C.ar    1  LIG1        0.1761
     12 O           0.8262    4.6166   -0.0001 O.2     1  LIG1       -0.4483
     13 H           3.8286    3.3418   -0.0000 H       1  LIG1        0.0657
     14 H           3.7249    6.1125    0.0001 H       1  LIG1        0.0657
     15 C           0.9116    7.0256   -0.0000 C.ar    1  LIG1        0.2381
     16 N          -0.4202    7.0652   -0.0001 N.ar    1  LIG1       -0.1226
     17 C          -0.1865    9.3061   -0.0002 C.ar    1  LIG1        0.1605
     18 N           1.7089    8.0977   -0.0000 N.ar    1  LIG1       -0.1226
     19 N          -0.9803    8.2397   -0.0001 N.ar    1  LIG1       -0.1338
     20 N           1.1456    9.2656   -0.0001 N.ar    1  LIG1       -0.1338
     21 H          -0.6560   10.2783   -0.0001 H       1  LIG1        0.1085
@<TRIPOS>BOND
     1    17    19   ar
     2    17    21    1
     3    17    20   ar
     4    19    16   ar
     5    16    15   ar
     6    20    18   ar
     7    12    11   ar
     8    12     8   ar
     9    18    15   ar
    10     1     2   ar
    11     1     7    1
    12     1     4   ar
    13    15    11    1
    14    11    10   ar
    15     2     5   ar
    16     9    13    1
    17     9     8   ar
    18     9    10   ar
    19     4     6   ar
    20     5     3   ar
    21     8     3    1
    22     6     3   ar
    23    10    14    1
