@<TRIPOS>MOLECULE
mol_data/opt/m06hf/geoms/mol2/813-12.out
 23 25 0 0 0
SMALL
GASTEIGER

@<TRIPOS>ATOM
      1 C           0.0136   -0.0276    0.0006 C.ar    1  LIG1        0.1605
      2 N           1.3407    0.0275    0.0005 N.ar    1  LIG1       -0.1338
      3 C           1.0916    2.2749    0.0001 C.ar    1  LIG1        0.2193
      4 N          -0.7916    1.0365    0.0005 N.ar    1  LIG1       -0.1338
      5 N           1.8924    1.2043    0.0002 N.ar    1  LIG1       -0.1243
      6 N          -0.2476    2.2116    0.0002 N.ar    1  LIG1       -0.1243
      7 H          -0.4477   -1.0031    0.0009 H       1  LIG1        0.1085
      8 C           1.7233    3.5821   -0.0004 C.ar    1  LIG1        0.0880
      9 C           1.1848    4.8553   -0.0009 C.ar    1  LIG1       -0.0325
     10 C           2.2701    5.7575   -0.0006 C.ar    1  LIG1       -0.0327
     11 C           3.4325    5.0006   -0.0011 C.ar    1  LIG1        0.0826
     12 N           3.0838    3.6897   -0.0009 N.ar    1  LIG1       -0.3492
     13 H           3.6993    2.8884   -0.0009 H       1  LIG1        0.1661
     14 H           0.1323    5.0833   -0.0009 H       1  LIG1        0.0640
     15 H           2.2340    6.8331   -0.0005 H       1  LIG1        0.0640
     16 C           4.8213    5.4407   -0.0015 C.ar    1  LIG1        0.1509
     17 C           6.0167    4.7907   -0.0022 C.ar    1  LIG1       -0.0144
     18 C           7.0220    5.8187   -0.0021 C.ar    1  LIG1       -0.0233
     19 C           6.3505    6.9944   -0.0015 C.ar    1  LIG1        0.0926
     20 O           5.0195    6.7750   -0.0010 O.2     1  LIG1       -0.4615
     21 H           6.6651    8.0225   -0.0012 H       1  LIG1        0.1029
     22 H           6.1775    3.7255   -0.0028 H       1  LIG1        0.0656
     23 H           8.0901    5.6885   -0.0026 H       1  LIG1        0.0649
@<TRIPOS>BOND
     1    22    17    1
     2    23    18    1
     3    17    18   ar
     4    17    16   ar
     5    18    19   ar
     6    19    21    1
     7    19    20   ar
     8    16    11    1
     9    16    20   ar
    10    11    12   ar
    11    11    10   ar
    12    14     9    1
    13     9    10   ar
    14     9     8   ar
    15    12    13    1
    16    12     8   ar
    17    10    15    1
    18     8     3    1
    19     3     5   ar
    20     3     6   ar
    21     5     2   ar
    22     6     4   ar
    23     2     1   ar
    24     4     1   ar
    25     1     7    1
