@<TRIPOS>MOLECULE
mol_data/opt/m06hf/geoms/mol2/813-513.out
 31 34 0 0 0
SMALL
GASTEIGER

@<TRIPOS>ATOM
      1 C          -0.1105    0.0661   -0.7616 C.ar    1  LIG1        0.1605
      2 N           1.1905    0.1809   -1.0032 N.ar    1  LIG1       -0.1338
      3 C           1.0103    2.2576   -0.1270 C.ar    1  LIG1        0.2193
      4 N          -0.8702    1.0175   -0.2158 N.ar    1  LIG1       -0.1338
      5 N           1.7642    1.3016   -0.6786 N.ar    1  LIG1       -0.1243
      6 N          -0.3039    2.1367    0.1089 N.ar    1  LIG1       -0.1243
      7 H          -0.5900   -0.8635   -1.0275 H       1  LIG1        0.1085
      8 C           1.6702    3.4993    0.2379 C.ar    1  LIG1        0.0880
      9 C           1.1820    4.6570    0.8137 C.ar    1  LIG1       -0.0326
     10 C           2.2766    5.5389    0.9459 C.ar    1  LIG1       -0.0352
     11 C           3.3963    4.8881    0.4461 C.ar    1  LIG1        0.0537
     12 N           3.0078    3.6582    0.0221 N.ar    1  LIG1       -0.3512
     13 H           3.5860    2.9722   -0.4435 H       1  LIG1        0.1660
     14 H           0.1586    4.8198    1.1057 H       1  LIG1        0.0640
     15 H           2.2724    6.5239    1.3819 H       1  LIG1        0.0639
     16 C           4.7914    5.3197    0.3509 C.ar    1  LIG1        0.0361
     17 C           5.9186    4.5563    0.4592 C.ar    1  LIG1       -0.0449
     18 C           7.1202    5.3145    0.2924 C.ar    1  LIG1       -0.0449
     19 C           6.8839    6.6418    0.0822 C.ar    1  LIG1        0.0361
     20 S           5.1836    6.9823    0.0757 S.2     1  LIG1       -0.0853
     21 H           5.8971    3.4959    0.6687 H       1  LIG1        0.0630
     22 H           8.1158    4.8976    0.3165 H       1  LIG1        0.0630
     23 C           7.8722    7.7083   -0.0885 C.ar    1  LIG1        0.0531
     24 C           9.0736    7.9193    0.5527 C.ar    1  LIG1       -0.0359
     25 C           9.6446    9.0986    0.0016 C.ar    1  LIG1       -0.0438
     26 C           8.7710    9.5663   -0.9513 C.ar    1  LIG1        0.0022
     27 N           7.7024    8.7214   -0.9938 N.ar    1  LIG1       -0.3603
     28 H           6.9355    8.7796   -1.6453 H       1  LIG1        0.1653
     29 H           8.8273   10.4252   -1.5971 H       1  LIG1        0.0807
     30 H           9.4668    7.3071    1.3468 H       1  LIG1        0.0639
     31 H          10.5792    9.5553    0.2789 H       1  LIG1        0.0633
@<TRIPOS>BOND
     1    28    27    1
     2    29    26    1
     3     7     1    1
     4     2     1   ar
     5     2     5   ar
     6    27    26   ar
     7    27    23   ar
     8    26    25   ar
     9     1     4   ar
    10     5     3   ar
    11    13    12    1
    12     4     6   ar
    13     3     6   ar
    14     3     8    1
    15    23    19    1
    16    23    24   ar
    17    25    31    1
    18    25    24   ar
    19    12     8   ar
    20    12    11   ar
    21    20    19   ar
    22    20    16   ar
    23    19    18   ar
    24     8     9   ar
    25    18    22    1
    26    18    17   ar
    27    16    11    1
    28    16    17   ar
    29    11    10   ar
    30    17    21    1
    31    24    30    1
    32     9    10   ar
    33     9    14    1
    34    10    15    1
