@<TRIPOS>MOLECULE
mol_data/opt/m06hf/geoms/mol2/813-4-4-.out
 36 39 0 0 0
SMALL
GASTEIGER

@<TRIPOS>ATOM
      1 C          -0.1808   -0.0356   -0.1741 C.ar    1  LIG1        0.1605
      2 N           1.1457   -0.0062   -0.2237 N.ar    1  LIG1       -0.1338
      3 C           0.9479    2.2382   -0.0328 C.ar    1  LIG1        0.2193
      4 N          -0.9621    1.0402   -0.0580 N.ar    1  LIG1       -0.1338
      5 N           1.7241    1.1564   -0.1514 N.ar    1  LIG1       -0.1243
      6 N          -0.3918    2.2007    0.0139 N.ar    1  LIG1       -0.1243
      7 H          -0.6653   -0.9982   -0.2334 H       1  LIG1        0.1085
      8 C           1.6054    3.5300    0.0508 C.ar    1  LIG1        0.0879
      9 C           1.0874    4.8043    0.1829 C.ar    1  LIG1       -0.0326
     10 C           2.1873    5.6889    0.2019 C.ar    1  LIG1       -0.0357
     11 C           3.3412    4.9261    0.0822 C.ar    1  LIG1        0.0470
     12 N           2.9657    3.6237   -0.0035 N.ar    1  LIG1       -0.3516
     13 H           3.5737    2.8319   -0.1623 H       1  LIG1        0.1660
     14 H           0.0402    5.0413    0.2641 H       1  LIG1        0.0640
     15 H           2.1593    6.7582    0.3264 H       1  LIG1        0.0639
     16 C           5.1109    6.5561   -0.5377 C.ar    1  LIG1       -0.0521
     17 C           6.4367    6.9677   -0.5568 C.ar    1  LIG1       -0.0534
     18 C           4.7565    5.3404    0.0532 C.ar    1  LIG1       -0.0017
     19 C           7.4407    6.1700    0.0006 C.ar    1  LIG1       -0.0178
     20 H           6.7056    7.9005   -1.0366 H       1  LIG1        0.0624
     21 C           5.7561    4.5426    0.6170 C.ar    1  LIG1       -0.0521
     22 C           7.0841    4.9514    0.5837 C.ar    1  LIG1       -0.0534
     23 H           5.4920    3.6187    1.1176 H       1  LIG1        0.0624
     24 H           4.3450    7.1629   -1.0028 H       1  LIG1        0.0624
     25 H           7.8489    4.3395    1.0454 H       1  LIG1        0.0624
     26 C           9.1958    7.9279    0.3321 C.ar    1  LIG1       -0.0540
     27 C          10.5212    8.3504    0.3106 C.ar    1  LIG1       -0.0612
     28 C           8.8637    6.6177   -0.0224 C.ar    1  LIG1       -0.0179
     29 C          11.5300    7.4668   -0.0652 C.ar    1  LIG1       -0.0617
     30 H          10.7664    9.3653    0.5952 H       1  LIG1        0.0618
     31 C           9.8814    5.7364   -0.3974 C.ar    1  LIG1       -0.0540
     32 C          11.2070    6.1593   -0.4191 C.ar    1  LIG1       -0.0612
     33 H           9.6270    4.7266   -0.6955 H       1  LIG1        0.0624
     34 H          12.5611    7.7949   -0.0825 H       1  LIG1        0.0618
     35 H           8.4133    8.6069    0.6472 H       1  LIG1        0.0624
     36 H          11.9856    5.4707   -0.7196 H       1  LIG1        0.0618
@<TRIPOS>BOND
     1    20    17    1
     2    24    16    1
     3    36    32    1
     4    33    31    1
     5    17    16   ar
     6    17    19   ar
     7    16    18   ar
     8    32    31   ar
     9    32    29   ar
    10    31    28   ar
    11     7     1    1
    12     2     1   ar
    13     2     5   ar
    14     1     4   ar
    15    13    12    1
    16     5     3   ar
    17    34    29    1
    18    29    27   ar
    19     4     6   ar
    20     3     6   ar
    21     3     8    1
    22    28    19    1
    23    28    26   ar
    24    12     8   ar
    25    12    11   ar
    26    19    22   ar
    27     8     9   ar
    28    18    11    1
    29    18    21   ar
    30    11    10   ar
    31     9    10   ar
    32     9    14    1
    33    10    15    1
    34    27    26   ar
    35    27    30    1
    36    26    35    1
    37    22    21   ar
    38    22    25    1
    39    21    23    1
