@<TRIPOS>MOLECULE
mol_data/opt/m06hf/geoms/mol2/813-8-5-.out
 29 32 0 0 0
SMALL
GASTEIGER

@<TRIPOS>ATOM
      1 C           0.0358   -0.0463    0.0004 C.ar    1  LIG1        0.1605
      2 N           1.3629    0.0200   -0.0001 N.ar    1  LIG1       -0.1338
      3 C           1.0918    2.2616   -0.0000 C.ar    1  LIG1        0.2193
      4 N          -0.7800    1.0086    0.0007 N.ar    1  LIG1       -0.1338
      5 N           1.9041    1.2020   -0.0003 N.ar    1  LIG1       -0.1243
      6 N          -0.2442    2.1894    0.0004 N.ar    1  LIG1       -0.1243
      7 H          -0.4176   -1.0259    0.0006 H       1  LIG1        0.1085
      8 C           1.7104    3.5810   -0.0003 C.ar    1  LIG1        0.0880
      9 C           1.1412    4.8450   -0.0002 C.ar    1  LIG1       -0.0325
     10 C           2.2045    5.7701   -0.0006 C.ar    1  LIG1       -0.0325
     11 C           3.3773    5.0309   -0.0010 C.ar    1  LIG1        0.0880
     12 N           3.0612    3.7124   -0.0008 N.ar    1  LIG1       -0.3491
     13 H           3.7277    2.9494   -0.0011 H       1  LIG1        0.1661
     14 H           0.0840    5.0480    0.0002 H       1  LIG1        0.0640
     15 H           2.1504    6.8450   -0.0006 H       1  LIG1        0.0640
     16 C           4.7698    5.4621   -0.0015 C.ar    1  LIG1        0.2194
     17 N           5.0263    6.7771   -0.0017 N.ar    1  LIG1       -0.1237
     18 C           7.2124    6.2035   -0.0025 C.ar    1  LIG1        0.2099
     19 N           5.7121    4.5186   -0.0018 N.ar    1  LIG1       -0.1237
     20 N           6.2618    7.1514   -0.0021 N.ar    1  LIG1       -0.1246
     21 N           6.9537    4.8953   -0.0023 N.ar    1  LIG1       -0.1246
     22 C           8.6092    6.6359   -0.0028 C.ar    1  LIG1        0.0598
     23 C           9.0616    7.9258   -0.0029 C.ar    1  LIG1       -0.0438
     24 C          10.4874    7.9927   -0.0035 C.ar    1  LIG1       -0.0540
     25 C          11.0597    6.7547   -0.0039 C.ar    1  LIG1       -0.0236
     26 S           9.8982    5.4912   -0.0030 S.2     1  LIG1       -0.0934
     27 H          12.1109    6.5143   -0.0045 H       1  LIG1        0.0693
     28 H           8.3948    8.7751   -0.0027 H       1  LIG1        0.0630
     29 H          11.0506    8.9130   -0.0038 H       1  LIG1        0.0623
@<TRIPOS>BOND
     1    27    25    1
     2    25    24   ar
     3    25    26   ar
     4    29    24    1
     5    24    23   ar
     6    26    22   ar
     7    23    22   ar
     8    23    28    1
     9    22    18    1
    10    18    21   ar
    11    18    20   ar
    12    21    19   ar
    13    20    17   ar
    14    19    16   ar
    15    17    16   ar
    16    16    11    1
    17    13    12    1
    18    11    12   ar
    19    11    10   ar
    20    12     8   ar
    21    10    15    1
    22    10     9   ar
    23     8     9   ar
    24     8     3    1
    25     5     2   ar
    26     5     3   ar
    27     9    14    1
    28     2     1   ar
    29     3     6   ar
    30     1     7    1
    31     1     4   ar
    32     6     4   ar
