@<TRIPOS>MOLECULE
mol_data/opt/m06hf/geoms/mol2/813-85.out
 29 32 0 0 0
SMALL
GASTEIGER

@<TRIPOS>ATOM
      1 C           0.0131   -0.0361    0.0004 C.ar    1  LIG1        0.1605
      2 N           1.3408    0.0210   -0.0003 N.ar    1  LIG1       -0.1338
      3 C           1.0855    2.2650    0.0000 C.ar    1  LIG1        0.2193
      4 N          -0.7949    1.0249    0.0009 N.ar    1  LIG1       -0.1338
      5 N           1.8901    1.1992   -0.0005 N.ar    1  LIG1       -0.1243
      6 N          -0.2510    2.2019    0.0007 N.ar    1  LIG1       -0.1243
      7 H          -0.4473   -1.0123    0.0006 H       1  LIG1        0.1085
      8 C           1.7123    3.5806   -0.0002 C.ar    1  LIG1        0.0880
      9 C           1.1499    4.8477    0.0002 C.ar    1  LIG1       -0.0325
     10 C           2.2183    5.7668   -0.0005 C.ar    1  LIG1       -0.0325
     11 C           3.3870    5.0212   -0.0010 C.ar    1  LIG1        0.0880
     12 N           3.0635    3.7043   -0.0009 N.ar    1  LIG1       -0.3491
     13 H           3.7259    2.9378   -0.0012 H       1  LIG1        0.1661
     14 H           0.0936    5.0557    0.0008 H       1  LIG1        0.0640
     15 H           2.1696    6.8420   -0.0005 H       1  LIG1        0.0640
     16 C           4.7829    5.4421   -0.0016 C.ar    1  LIG1        0.2194
     17 N           5.7145    4.4841   -0.0021 N.ar    1  LIG1       -0.1237
     18 C           7.2354    6.1462   -0.0028 C.ar    1  LIG1        0.2099
     19 N           5.0552    6.7506   -0.0018 N.ar    1  LIG1       -0.1237
     20 N           6.9603    4.8384   -0.0027 N.ar    1  LIG1       -0.1246
     21 N           6.2996    7.1037   -0.0024 N.ar    1  LIG1       -0.1246
     22 C           8.6381    6.5592   -0.0035 C.ar    1  LIG1        0.0598
     23 C           9.7319    5.7391   -0.0041 C.ar    1  LIG1       -0.0438
     24 C          10.9532    6.4773   -0.0046 C.ar    1  LIG1       -0.0540
     25 C          10.7388    7.8248   -0.0044 C.ar    1  LIG1       -0.0236
     26 S           9.0722    8.2258   -0.0038 S.2     1  LIG1       -0.0934
     27 H          11.4782    8.6102   -0.0047 H       1  LIG1        0.0693
     28 H           9.6528    4.6620   -0.0041 H       1  LIG1        0.0630
     29 H          11.9333    6.0252   -0.0051 H       1  LIG1        0.0623
@<TRIPOS>BOND
     1    29    24    1
     2    27    25    1
     3    24    25   ar
     4    24    23   ar
     5    25    26   ar
     6    23    28    1
     7    23    22   ar
     8    26    22   ar
     9    22    18    1
    10    18    20   ar
    11    18    21   ar
    12    20    17   ar
    13    21    19   ar
    14    17    16   ar
    15    19    16   ar
    16    16    11    1
    17    13    12    1
    18    11    12   ar
    19    11    10   ar
    20    12     8   ar
    21     5     2   ar
    22     5     3   ar
    23    10    15    1
    24    10     9   ar
    25     2     1   ar
    26     8     3    1
    27     8     9   ar
    28     3     6   ar
    29     9    14    1
    30     1     7    1
    31     1     4   ar
    32     6     4   ar
