@<TRIPOS>MOLECULE
mol_data/opt/m06hf/geoms/mol2/813-1313.out
 32 35 0 0 0
SMALL
GASTEIGER

@<TRIPOS>ATOM
      1 C           0.1029   -0.0662   -0.6532 C.ar    1  LIG1        0.1605
      2 N           1.4268    0.0370   -0.6208 N.ar    1  LIG1       -0.1338
      3 C           1.0888    2.2338   -0.2030 C.ar    1  LIG1        0.2193
      4 N          -0.7434    0.9485   -0.4704 N.ar    1  LIG1       -0.1338
      5 N           1.9310    1.2126   -0.3906 N.ar    1  LIG1       -0.1243
      6 N          -0.2467    2.1228   -0.2411 N.ar    1  LIG1       -0.1243
      7 H          -0.3198   -1.0408   -0.8432 H       1  LIG1        0.1085
      8 C           1.6709    3.5383    0.0585 C.ar    1  LIG1        0.0880
      9 C           1.0852    4.7688    0.2875 C.ar    1  LIG1       -0.0326
     10 C           2.1378    5.6898    0.4864 C.ar    1  LIG1       -0.0343
     11 C           3.3308    4.9882    0.3673 C.ar    1  LIG1        0.0634
     12 N           3.0260    3.6934    0.1080 N.ar    1  LIG1       -0.3505
     13 H           3.6854    2.9498   -0.0770 H       1  LIG1        0.1660
     14 H           0.0250    4.9556    0.3169 H       1  LIG1        0.0640
     15 H           2.0489    6.7352    0.7304 H       1  LIG1        0.0639
     16 C           4.7175    5.4335    0.4809 C.ar    1  LIG1        0.0634
     17 C           5.8358    4.7967    0.9773 C.ar    1  LIG1       -0.0343
     18 C           6.9276    5.6956    0.8414 C.ar    1  LIG1       -0.0343
     19 C           6.4422    6.8493    0.2653 C.ar    1  LIG1        0.0633
     20 N           5.0997    6.6762    0.0591 N.ar    1  LIG1       -0.3519
     21 H           4.5176    7.2980   -0.4815 H       1  LIG1        0.1660
     22 H           5.8494    3.8195    1.4317 H       1  LIG1        0.0639
     23 H           7.9460    5.5447    1.1569 H       1  LIG1        0.0639
     24 C           7.1214    8.0926   -0.1074 C.ar    1  LIG1        0.0629
     25 C           8.3041    8.3063   -0.7775 C.ar    1  LIG1       -0.0350
     26 C           8.4940    9.7145   -0.8628 C.ar    1  LIG1       -0.0438
     27 C           7.4192   10.3084   -0.2468 C.ar    1  LIG1        0.0022
     28 N           6.5928    9.3192    0.2020 N.ar    1  LIG1       -0.3595
     29 H           5.7787    9.4543    0.7798 H       1  LIG1        0.1654
     30 H           7.1802   11.3462   -0.0923 H       1  LIG1        0.0807
     31 H           8.9353    7.5308   -1.1774 H       1  LIG1        0.0639
     32 H           9.3154   10.2296   -1.3304 H       1  LIG1        0.0633
@<TRIPOS>BOND
     1    32    26    1
     2    31    25    1
     3    26    25   ar
     4    26    27   ar
     5     7     1    1
     6    25    24   ar
     7     1     2   ar
     8     1     4   ar
     9     2     5   ar
    10    21    20    1
    11     4     6   ar
    12     5     3   ar
    13    27    30    1
    14    27    28   ar
    15     6     3   ar
    16     3     8    1
    17    24    28   ar
    18    24    19    1
    19    13    12    1
    20     8    12   ar
    21     8     9   ar
    22    20    19   ar
    23    20    16   ar
    24    12    11   ar
    25    28    29    1
    26    19    18   ar
    27     9    14    1
    28     9    10   ar
    29    11    16    1
    30    11    10   ar
    31    16    17   ar
    32    10    15    1
    33    18    17   ar
    34    18    23    1
    35    17    22    1
