@<TRIPOS>MOLECULE
mol_data/opt/m06hf/geoms/mol2/813-13.out
 24 26 0 0 0
SMALL
GASTEIGER

@<TRIPOS>ATOM
      1 C           0.0007   -0.0326    0.0059 C.ar    1  LIG1        0.1605
      2 N           1.3276    0.0228    0.0077 N.ar    1  LIG1       -0.1338
      3 C           1.0788    2.2701    0.0002 C.ar    1  LIG1        0.2193
      4 N          -0.8049    1.0313    0.0013 N.ar    1  LIG1       -0.1338
      5 N           1.8798    1.1994    0.0047 N.ar    1  LIG1       -0.1243
      6 N          -0.2610    2.2061   -0.0016 N.ar    1  LIG1       -0.1243
      7 H          -0.4607   -1.0082    0.0083 H       1  LIG1        0.1085
      8 C           1.7076    3.5773   -0.0028 C.ar    1  LIG1        0.0880
      9 C           1.1651    4.8473   -0.0076 C.ar    1  LIG1       -0.0326
     10 C           2.2481    5.7522   -0.0084 C.ar    1  LIG1       -0.0343
     11 C           3.4198    5.0034   -0.0037 C.ar    1  LIG1        0.0634
     12 N           3.0685    3.6943   -0.0004 N.ar    1  LIG1       -0.3505
     13 H           3.6920    2.8992    0.0047 H       1  LIG1        0.1660
     14 H           0.1121    5.0731   -0.0107 H       1  LIG1        0.0640
     15 H           2.1786    6.8272   -0.0132 H       1  LIG1        0.0639
     16 C           4.8204    5.4173   -0.0024 C.ar    1  LIG1        0.0629
     17 C           5.9861    4.6795   -0.0121 C.ar    1  LIG1       -0.0350
     18 C           7.0695    5.5990   -0.0058 C.ar    1  LIG1       -0.0438
     19 C           6.5291    6.8624    0.0079 C.ar    1  LIG1        0.0022
     20 N           5.1716    6.7380    0.0095 N.ar    1  LIG1       -0.3595
     21 H           4.5185    7.5043    0.0204 H       1  LIG1        0.1654
     22 H           6.9984    7.8304    0.0167 H       1  LIG1        0.0807
     23 H           6.0597    3.6043   -0.0239 H       1  LIG1        0.0639
     24 H           8.1191    5.3591   -0.0107 H       1  LIG1        0.0633
@<TRIPOS>BOND
     1    23    17    1
     2    15    10    1
     3    17    18   ar
     4    17    16   ar
     5    24    18    1
     6    14     9    1
     7    10     9   ar
     8    10    11   ar
     9     9     8   ar
    10    18    19   ar
    11    11    16    1
    12    11    12   ar
    13     8    12   ar
    14     8     3    1
    15    16    20   ar
    16     6     3   ar
    17     6     4   ar
    18    12    13    1
    19     3     5   ar
    20     4     1   ar
    21     5     2   ar
    22     1     2   ar
    23     1     7    1
    24    19    20   ar
    25    19    22    1
    26    20    21    1
