@<TRIPOS>MOLECULE
mol_data/opt/m06hf/geoms/mol2/813-5-.out
 23 25 0 0 0
SMALL
GASTEIGER

@<TRIPOS>ATOM
      1 C           0.0252   -0.0172    0.2051 C.ar    1  LIG1        0.1605
      2 N           1.3485    0.0611    0.2905 N.ar    1  LIG1       -0.1338
      3 C           1.0777    2.2876    0.0044 C.ar    1  LIG1        0.2193
      4 N          -0.7884    1.0241    0.0234 N.ar    1  LIG1       -0.1338
      5 N           1.8869    1.2395    0.1873 N.ar    1  LIG1       -0.1243
      6 N          -0.2569    2.2014   -0.0795 N.ar    1  LIG1       -0.1243
      7 H          -0.4262   -0.9939    0.2893 H       1  LIG1        0.1085
      8 C           1.6999    3.5961   -0.1062 C.ar    1  LIG1        0.0880
      9 C           1.1550    4.8540   -0.2816 C.ar    1  LIG1       -0.0326
     10 C           2.2339    5.7642   -0.3122 C.ar    1  LIG1       -0.0352
     11 C           3.4003    5.0304   -0.1481 C.ar    1  LIG1        0.0536
     12 N           3.0558    3.7219   -0.0296 N.ar    1  LIG1       -0.3512
     13 H           3.6788    2.9462    0.1535 H       1  LIG1        0.1660
     14 H           0.1042    5.0649   -0.3846 H       1  LIG1        0.0640
     15 H           2.1891    6.8291   -0.4649 H       1  LIG1        0.0639
     16 C           4.7933    5.4784   -0.0963 C.ar    1  LIG1        0.0355
     17 C           5.2685    6.6382    0.4420 C.ar    1  LIG1       -0.0455
     18 C           6.6901    6.7650    0.3104 C.ar    1  LIG1       -0.0541
     19 C           7.2518    5.6964   -0.3148 C.ar    1  LIG1       -0.0237
     20 S           6.0719    4.5328   -0.7784 S.2     1  LIG1       -0.0952
     21 H           8.2925    5.5264   -0.5370 H       1  LIG1        0.0693
     22 H           4.6313    7.3575    0.9349 H       1  LIG1        0.0629
     23 H           7.2573    7.6068    0.6776 H       1  LIG1        0.0623
@<TRIPOS>BOND
     1    20    19   ar
     2    20    16   ar
     3    21    19    1
     4    15    10    1
     5    14     9    1
     6    19    18   ar
     7    10     9   ar
     8    10    11   ar
     9     9     8   ar
    10    11    16    1
    11    11    12   ar
    12     8    12   ar
    13     8     3    1
    14    16    17   ar
    15     6     3   ar
    16     6     4   ar
    17    12    13    1
    18     3     5   ar
    19     4     1   ar
    20     5     2   ar
    21     1     7    1
    22     1     2   ar
    23    18    17   ar
    24    18    23    1
    25    17    22    1
