@<TRIPOS>MOLECULE
mol_data/opt/m06hf/geoms/mol2/813-12-.out
 23 25 0 0 0
SMALL
GASTEIGER

@<TRIPOS>ATOM
      1 C           0.0218   -0.0221    0.0004 C.ar    1  LIG1        0.1605
      2 N           1.3492    0.0365    0.0002 N.ar    1  LIG1       -0.1338
      3 C           1.0938    2.2827    0.0001 C.ar    1  LIG1        0.2193
      4 N          -0.7865    1.0390    0.0005 N.ar    1  LIG1       -0.1338
      5 N           1.8980    1.2145    0.0000 N.ar    1  LIG1       -0.1243
      6 N          -0.2453    2.2160    0.0003 N.ar    1  LIG1       -0.1243
      7 H          -0.4370   -0.9990    0.0007 H       1  LIG1        0.1085
      8 C           1.7222    3.5922   -0.0004 C.ar    1  LIG1        0.0880
      9 C           1.1769    4.8633   -0.0008 C.ar    1  LIG1       -0.0325
     10 C           2.2562    5.7718   -0.0004 C.ar    1  LIG1       -0.0327
     11 C           3.4229    5.0200   -0.0010 C.ar    1  LIG1        0.0826
     12 N           3.0808    3.7088   -0.0010 N.ar    1  LIG1       -0.3492
     13 H           3.7236    2.9275   -0.0011 H       1  LIG1        0.1661
     14 H           0.1233    5.0852   -0.0007 H       1  LIG1        0.0640
     15 H           2.2023    6.8472   -0.0002 H       1  LIG1        0.0640
     16 C           4.8237    5.4213   -0.0013 C.ar    1  LIG1        0.1509
     17 C           5.4545    6.6249   -0.0012 C.ar    1  LIG1       -0.0144
     18 C           6.8625    6.3292   -0.0021 C.ar    1  LIG1       -0.0233
     19 C           6.9621    4.9794   -0.0019 C.ar    1  LIG1        0.0926
     20 O           5.7321    4.4192   -0.0018 O.2     1  LIG1       -0.4615
     21 H           7.7957    4.3002   -0.0022 H       1  LIG1        0.1029
     22 H           4.9844    7.5935   -0.0009 H       1  LIG1        0.0656
     23 H           7.6773    7.0323   -0.0025 H       1  LIG1        0.0649
@<TRIPOS>BOND
     1    23    18    1
     2    21    19    1
     3    18    19   ar
     4    18    17   ar
     5    19    20   ar
     6    20    16   ar
     7    16    17   ar
     8    16    11    1
     9    17    22    1
    10    13    12    1
    11    11    12   ar
    12    11    10   ar
    13    12     8   ar
    14     9    14    1
    15     9    10   ar
    16     9     8   ar
    17    10    15    1
    18     8     3    1
    19     5     3   ar
    20     5     2   ar
    21     3     6   ar
    22     2     1   ar
    23     6     4   ar
    24     1     4   ar
    25     1     7    1
