@<TRIPOS>MOLECULE
mol_data/opt/m06hf/geoms/mol2/813-5.out
 23 25 0 0 0
SMALL
GASTEIGER

@<TRIPOS>ATOM
      1 C          -0.0390   -0.0298    0.0006 C.ar    1  LIG1        0.1605
      2 N           1.2887    0.0119    0.0004 N.ar    1  LIG1       -0.1338
      3 C           1.0621    2.2616    0.0002 C.ar    1  LIG1        0.2193
      4 N          -0.8334    1.0423    0.0007 N.ar    1  LIG1       -0.1338
      5 N           1.8521    1.1830    0.0002 N.ar    1  LIG1       -0.1243
      6 N          -0.2775    2.2119    0.0005 N.ar    1  LIG1       -0.1243
      7 H          -0.5100   -1.0007    0.0008 H       1  LIG1        0.1085
      8 C           1.7074    3.5624   -0.0002 C.ar    1  LIG1        0.0880
      9 C           1.1833    4.8409   -0.0006 C.ar    1  LIG1       -0.0326
     10 C           2.2800    5.7281   -0.0011 C.ar    1  LIG1       -0.0352
     11 C           3.4389    4.9615   -0.0010 C.ar    1  LIG1        0.0536
     12 N           3.0681    3.6555   -0.0005 N.ar    1  LIG1       -0.3512
     13 H           3.6715    2.8454   -0.0000 H       1  LIG1        0.1660
     14 H           0.1338    5.0824   -0.0006 H       1  LIG1        0.0640
     15 H           2.2408    6.8047   -0.0015 H       1  LIG1        0.0639
     16 C           4.8443    5.3699   -0.0015 C.ar    1  LIG1        0.0355
     17 C           5.9633    4.5863   -0.0032 C.ar    1  LIG1       -0.0455
     18 C           7.1752    5.3504   -0.0032 C.ar    1  LIG1       -0.0541
     19 C           6.9442    6.6893   -0.0015 C.ar    1  LIG1       -0.0237
     20 S           5.2601    7.0484   -0.0002 S.2     1  LIG1       -0.0952
     21 H           7.6644    7.4910   -0.0011 H       1  LIG1        0.0693
     22 H           5.9454    3.5059   -0.0046 H       1  LIG1        0.0629
     23 H           8.1618    4.9129   -0.0044 H       1  LIG1        0.0623
@<TRIPOS>BOND
     1    22    17    1
     2    23    18    1
     3    17    18   ar
     4    17    16   ar
     5    18    19   ar
     6    19    21    1
     7    19    20   ar
     8    15    10    1
     9    16    11    1
    10    16    20   ar
    11    10    11   ar
    12    10     9   ar
    13    11    12   ar
    14     9    14    1
    15     9     8   ar
    16    12     8   ar
    17    12    13    1
    18     8     3    1
    19     5     3   ar
    20     5     2   ar
    21     3     6   ar
    22     2     1   ar
    23     6     4   ar
    24     1     4   ar
    25     1     7    1
