@<TRIPOS>MOLECULE
mol_data/opt/m06hf/geoms/mol2/813-8.out
 22 24 0 0 0
SMALL
GASTEIGER

@<TRIPOS>ATOM
      1 C           0.0393   -0.0204    0.0003 C.ar    1  LIG1        0.1605
      2 N           1.3673    0.0388   -0.0002 N.ar    1  LIG1       -0.1338
      3 C           1.1076    2.2816   -0.0001 C.ar    1  LIG1        0.2193
      4 N          -0.7704    1.0389    0.0006 N.ar    1  LIG1       -0.1338
      5 N           1.9141    1.2177   -0.0004 N.ar    1  LIG1       -0.1243
      6 N          -0.2287    2.2170    0.0004 N.ar    1  LIG1       -0.1243
      7 H          -0.4180   -0.9981    0.0005 H       1  LIG1        0.1085
      8 C           1.7359    3.5979   -0.0004 C.ar    1  LIG1        0.0880
      9 C           1.1790    4.8674   -0.0001 C.ar    1  LIG1       -0.0325
     10 C           2.2514    5.7818   -0.0008 C.ar    1  LIG1       -0.0325
     11 C           3.4169    5.0312   -0.0009 C.ar    1  LIG1        0.0880
     12 N           3.0874    3.7153   -0.0008 N.ar    1  LIG1       -0.3491
     13 H           3.7449    2.9442   -0.0009 H       1  LIG1        0.1661
     14 H           0.1237    5.0807    0.0003 H       1  LIG1        0.0640
     15 H           2.2075    6.8575   -0.0010 H       1  LIG1        0.0640
     16 C           4.8160    5.4436   -0.0014 C.ar    1  LIG1        0.2193
     17 N           5.7390    4.4791   -0.0015 N.ar    1  LIG1       -0.1243
     18 C           7.2578    6.1346   -0.0021 C.ar    1  LIG1        0.1605
     19 N           5.0910    6.7529   -0.0016 N.ar    1  LIG1       -0.1243
     20 N           6.9896    4.8326   -0.0019 N.ar    1  LIG1       -0.1338
     21 N           6.3398    7.1016   -0.0020 N.ar    1  LIG1       -0.1338
     22 H           8.2956    6.4316   -0.0025 H       1  LIG1        0.1085
@<TRIPOS>BOND
     1    22    18    1
     2    18    21   ar
     3    18    20   ar
     4    21    19   ar
     5    20    17   ar
     6    19    16   ar
     7    17    16   ar
     8    16    11    1
     9    15    10    1
    10    11    10   ar
    11    11    12   ar
    12    13    12    1
    13    10     9   ar
    14    12     8   ar
    15     5     2   ar
    16     5     3   ar
    17     8     3    1
    18     8     9   ar
    19     2     1   ar
    20     3     6   ar
    21     9    14    1
    22     1     7    1
    23     1     4   ar
    24     6     4   ar
