@<TRIPOS>MOLECULE
mol_data/opt/m06hf/geoms/mol2/813-.out
 16 17 0 0 0
SMALL
GASTEIGER

@<TRIPOS>ATOM
      1 C           0.0287   -0.0046    0.0002 C.ar    1  LIG1        0.1605
      2 N           1.3564    0.0440    0.0001 N.ar    1  LIG1       -0.1338
      3 C           1.1181    2.2930   -0.0001 C.ar    1  LIG1        0.2193
      4 N          -0.7710    1.0625    0.0002 N.ar    1  LIG1       -0.1338
      5 N           1.9132    1.2183   -0.0001 N.ar    1  LIG1       -0.1243
      6 N          -0.2212    2.2358    0.0000 N.ar    1  LIG1       -0.1243
      7 H          -0.4370   -0.9784    0.0004 H       1  LIG1        0.1085
      8 C           1.7587    3.5972   -0.0003 C.ar    1  LIG1        0.0875
      9 C           1.2311    4.8732   -0.0004 C.ar    1  LIG1       -0.0333
     10 C           2.3280    5.7668   -0.0005 C.ar    1  LIG1       -0.0437
     11 C           3.4795    5.0021   -0.0006 C.ar    1  LIG1        0.0023
     12 N           3.1205    3.6959   -0.0004 N.ar    1  LIG1       -0.3582
     13 H           3.7297    2.8907   -0.0004 H       1  LIG1        0.1654
     14 H           4.5147    5.2964   -0.0007 H       1  LIG1        0.0807
     15 H           0.1800    5.1085   -0.0003 H       1  LIG1        0.0640
     16 H           2.2873    6.8423   -0.0006 H       1  LIG1        0.0633
@<TRIPOS>BOND
     1    14    11    1
     2    16    10    1
     3    11    10   ar
     4    11    12   ar
     5    10     9   ar
     6    12    13    1
     7    12     8   ar
     8     9     8   ar
     9     9    15    1
    10     8     3    1
    11     3     5   ar
    12     3     6   ar
    13     5     2   ar
    14     6     4   ar
    15     2     1   ar
    16     4     1   ar
    17     1     7    1
