@<TRIPOS>MOLECULE
mol_data/opt/m06hf/geoms/mol2/813.out
 16 17 0 0 0
SMALL
GASTEIGER

@<TRIPOS>ATOM
      1 C          -0.0209    0.0202   -0.0002 C.ar    1  LIG1        0.1605
      2 N           1.3126    0.0204   -0.0001 N.ar    1  LIG1       -0.1338
      3 C           1.1640    2.2701    0.0001 C.ar    1  LIG1        0.2193
      4 N          -0.7784    1.1116   -0.0002 N.ar    1  LIG1       -0.1338
      5 N           1.9216    1.1642    0.0001 N.ar    1  LIG1       -0.1243
      6 N          -0.1729    2.2616   -0.0001 N.ar    1  LIG1       -0.1243
      7 H          -0.5207   -0.9365   -0.0004 H       1  LIG1        0.1085
      8 C           1.8232    3.5649    0.0003 C.ar    1  LIG1        0.0875
      9 C           3.1607    3.9082    0.0004 C.ar    1  LIG1       -0.0333
     10 C           3.2177    5.3219    0.0006 C.ar    1  LIG1       -0.0437
     11 C           1.9151    5.7845    0.0005 C.ar    1  LIG1        0.0023
     12 N           1.0853    4.7137    0.0003 N.ar    1  LIG1       -0.3582
     13 H           0.0756    4.7182    0.0002 H       1  LIG1        0.1654
     14 H           1.5296    6.7893    0.0006 H       1  LIG1        0.0807
     15 H           3.9794    3.2083    0.0005 H       1  LIG1        0.0640
     16 H           4.1026    5.9345    0.0007 H       1  LIG1        0.0633
@<TRIPOS>BOND
     1     7     1    1
     2     1     4   ar
     3     1     2   ar
     4     4     6   ar
     5     2     5   ar
     6     6     3   ar
     7     5     3   ar
     8     3     8    1
     9    13    12    1
    10     8    12   ar
    11     8     9   ar
    12    12    11   ar
    13     9    15    1
    14     9    10   ar
    15    11    14    1
    16    11    10   ar
    17    10    16    1
