@<TRIPOS>MOLECULE
mol_data/opt/m06hf/geoms/mol2/81313-5.out
 31 34 0 0 0
SMALL
GASTEIGER

@<TRIPOS>ATOM
      1 C           0.1109    0.0261   -0.8526 C.ar    1  LIG1        0.1605
      2 N           1.3320   -0.0338   -0.3182 N.ar    1  LIG1       -0.1338
      3 C           1.1984    2.2087   -0.1344 C.ar    1  LIG1        0.2193
      4 N          -0.5795    1.1452   -1.0403 N.ar    1  LIG1       -0.1338
      5 N           1.8907    1.0754    0.0493 N.ar    1  LIG1       -0.1243
      6 N          -0.0242    2.2614   -0.6729 N.ar    1  LIG1       -0.1243
      7 H          -0.3471   -0.9030   -1.1551 H       1  LIG1        0.1085
      8 C           1.8032    3.4656    0.2702 C.ar    1  LIG1        0.0880
      9 C           3.0281    3.7420    0.8467 C.ar    1  LIG1       -0.0326
     10 C           3.0898    5.1426    1.0198 C.ar    1  LIG1       -0.0343
     11 C           1.8996    5.6721    0.5378 C.ar    1  LIG1        0.0634
     12 N           1.1384    4.6436    0.0903 N.ar    1  LIG1       -0.3505
     13 H           0.2355    4.7200   -0.3577 H       1  LIG1        0.1660
     14 H           3.7674    3.0060    1.1141 H       1  LIG1        0.0640
     15 H           3.8849    5.7062    1.4794 H       1  LIG1        0.0639
     16 C           1.4265    7.0531    0.4677 C.ar    1  LIG1        0.0633
     17 C           0.1641    7.5891    0.6289 C.ar    1  LIG1       -0.0344
     18 C           0.2789    8.9926    0.4593 C.ar    1  LIG1       -0.0353
     19 C           1.6073    9.2685    0.2026 C.ar    1  LIG1        0.0536
     20 N           2.2842    8.0827    0.2131 N.ar    1  LIG1       -0.3526
     21 H           3.2750    7.9831    0.0537 H       1  LIG1        0.1660
     22 H          -0.7264    7.0330    0.8714 H       1  LIG1        0.0639
     23 H          -0.5129    9.7220    0.5011 H       1  LIG1        0.0639
     24 C           2.2978   10.5318   -0.0677 C.ar    1  LIG1        0.0355
     25 C           3.3300   10.7584   -0.9337 C.ar    1  LIG1       -0.0455
     26 C           3.7615   12.1248   -0.9324 C.ar    1  LIG1       -0.0541
     27 C           3.0389   12.8951   -0.0755 C.ar    1  LIG1       -0.0237
     28 S           1.8456   11.9777    0.7593 S.2     1  LIG1       -0.0952
     29 H           3.1401   13.9510    0.1156 H       1  LIG1        0.0693
     30 H           3.7423    9.9929   -1.5756 H       1  LIG1        0.0629
     31 H           4.5589   12.5063   -1.5524 H       1  LIG1        0.0623
@<TRIPOS>BOND
     1    30    25    1
     2    31    26    1
     3     7     1    1
     4     4     1   ar
     5     4     6   ar
     6    25    26   ar
     7    25    24   ar
     8    26    27   ar
     9     1     2   ar
    10     6     3   ar
    11    13    12    1
    12     2     5   ar
    13     3     5   ar
    14     3     8    1
    15    27    29    1
    16    27    28   ar
    17    24    19    1
    18    24    28   ar
    19    21    20    1
    20    12     8   ar
    21    12    11   ar
    22    19    20   ar
    23    19    18   ar
    24    20    16   ar
    25     8     9   ar
    26    18    23    1
    27    18    17   ar
    28    16    11    1
    29    16    17   ar
    30    11    10   ar
    31    17    22    1
    32     9    10   ar
    33     9    14    1
    34    10    15    1
