@<TRIPOS>MOLECULE
mol_data/opt/m06hf/geoms/mol2/81313-.out
 24 26 0 0 0
SMALL
GASTEIGER

@<TRIPOS>ATOM
      1 C           0.0134   -0.0166   -0.2483 C.ar    1  LIG1        0.1605
      2 N           1.3284   -0.0214   -0.0228 N.ar    1  LIG1       -0.1338
      3 C           1.1831    2.2287   -0.0131 C.ar    1  LIG1        0.2193
      4 N          -0.7318    1.0772   -0.3597 N.ar    1  LIG1       -0.1338
      5 N           1.9290    1.1197    0.0978 N.ar    1  LIG1       -0.1243
      6 N          -0.1346    2.2257   -0.2394 N.ar    1  LIG1       -0.1243
      7 H          -0.4797   -0.9714   -0.3479 H       1  LIG1        0.1085
      8 C           1.8375    3.5182    0.1155 C.ar    1  LIG1        0.0880
      9 C           3.1589    3.8476    0.3500 C.ar    1  LIG1       -0.0326
     10 C           3.2290    5.2582    0.3734 C.ar    1  LIG1       -0.0343
     11 C           1.9465    5.7412    0.1463 C.ar    1  LIG1        0.0634
     12 N           1.1234    4.6753   -0.0070 N.ar    1  LIG1       -0.3505
     13 H           0.1382    4.7111   -0.2302 H       1  LIG1        0.1660
     14 H           3.9571    3.1398    0.4972 H       1  LIG1        0.0640
     15 H           4.0978    5.8625    0.5741 H       1  LIG1        0.0639
     16 C           1.4386    7.1099    0.0653 C.ar    1  LIG1        0.0629
     17 C           0.2388    7.6568    0.4680 C.ar    1  LIG1       -0.0350
     18 C           0.2789    9.0408    0.1436 C.ar    1  LIG1       -0.0438
     19 C           1.4994    9.2869   -0.4395 C.ar    1  LIG1        0.0022
     20 N           2.1901    8.1123   -0.4800 N.ar    1  LIG1       -0.3595
     21 H           3.0934    7.9708   -0.9030 H       1  LIG1        0.1654
     22 H           1.9229   10.1964   -0.8283 H       1  LIG1        0.0807
     23 H          -0.5531    7.1274    0.9718 H       1  LIG1        0.0639
     24 H          -0.4907    9.7707    0.3278 H       1  LIG1        0.0633
@<TRIPOS>BOND
     1    21    20    1
     2    22    19    1
     3    20    19   ar
     4    20    16   ar
     5    19    18   ar
     6     4     1   ar
     7     4     6   ar
     8     7     1    1
     9     1     2   ar
    10     6     3   ar
    11    13    12    1
    12     2     5   ar
    13     3     5   ar
    14     3     8    1
    15    12     8   ar
    16    12    11   ar
    17    16    11    1
    18    16    17   ar
    19     8     9   ar
    20    18    24    1
    21    18    17   ar
    22    11    10   ar
    23     9    10   ar
    24     9    14    1
    25    10    15    1
    26    17    23    1
