@<TRIPOS>MOLECULE
mol_data/opt/m06hf/geoms/mol2/81312-13-.out
 31 34 0 0 0
SMALL
GASTEIGER

@<TRIPOS>ATOM
      1 C          -0.1063   -0.0283   -0.0004 C.ar    1  LIG1        0.1605
      2 N           1.2275   -0.0663   -0.0003 N.ar    1  LIG1       -0.1338
      3 C           1.1422    2.1856    0.0001 C.ar    1  LIG1        0.2193
      4 N          -0.8327    1.0836   -0.0002 N.ar    1  LIG1       -0.1338
      5 N           1.8690    1.0596   -0.0001 N.ar    1  LIG1       -0.1243
      6 N          -0.1946    2.2160    0.0000 N.ar    1  LIG1       -0.1243
      7 H          -0.6323   -0.9710   -0.0006 H       1  LIG1        0.1085
      8 C           1.8328    3.4630    0.0004 C.ar    1  LIG1        0.0880
      9 C           3.1783    3.7779    0.0005 C.ar    1  LIG1       -0.0325
     10 C           3.2675    5.1865    0.0008 C.ar    1  LIG1       -0.0327
     11 C           1.9702    5.6810    0.0008 C.ar    1  LIG1        0.0826
     12 N           1.1185    4.6257    0.0006 N.ar    1  LIG1       -0.3492
     13 H           0.1084    4.6494    0.0005 H       1  LIG1        0.1661
     14 H           3.9820    3.0617    0.0004 H       1  LIG1        0.0640
     15 H           4.1600    5.7875    0.0010 H       1  LIG1        0.0640
     16 C           1.4944    7.0550    0.0011 C.ar    1  LIG1        0.1518
     17 C           0.2564    7.6189    0.0014 C.ar    1  LIG1       -0.0137
     18 C           0.4612    9.0387    0.0016 C.ar    1  LIG1       -0.0137
     19 C           1.8087    9.2244    0.0015 C.ar    1  LIG1        0.1518
     20 O           2.4396    8.0249    0.0012 O.2     1  LIG1       -0.4519
     21 H          -0.6890    7.1028    0.0014 H       1  LIG1        0.0656
     22 H          -0.2901    9.8091    0.0018 H       1  LIG1        0.0656
     23 C           2.6632   10.4023    0.0017 C.ar    1  LIG1        0.0821
     24 C           2.3613   11.7479    0.0019 C.ar    1  LIG1       -0.0334
     25 C           3.5952   12.4501    0.0022 C.ar    1  LIG1       -0.0437
     26 C           4.6008   11.5103    0.0017 C.ar    1  LIG1        0.0023
     27 N           4.0230   10.2775    0.0015 N.ar    1  LIG1       -0.3583
     28 H           4.5024    9.3909    0.0012 H       1  LIG1        0.1654
     29 H           5.6706   11.6254    0.0016 H       1  LIG1        0.0807
     30 H           1.3705   12.1701    0.0021 H       1  LIG1        0.0640
     31 H           3.7291   13.5183    0.0025 H       1  LIG1        0.0633
@<TRIPOS>BOND
     1     7     1    1
     2     1     2   ar
     3     1     4   ar
     4     2     5   ar
     5     4     6   ar
     6     5     3   ar
     7     6     3   ar
     8     3     8    1
     9     8     9   ar
    10     8    12   ar
    11    14     9    1
    12    13    12    1
    13     9    10   ar
    14    12    11   ar
    15    10    11   ar
    16    10    15    1
    17    11    16    1
    18    16    20   ar
    19    16    17   ar
    20    28    27    1
    21    20    19   ar
    22    17    21    1
    23    17    18   ar
    24    27    26   ar
    25    27    23   ar
    26    19    18   ar
    27    19    23    1
    28    29    26    1
    29    18    22    1
    30    26    25   ar
    31    23    24   ar
    32    24    30    1
    33    24    25   ar
    34    25    31    1
