@<TRIPOS>MOLECULE
mol_data/opt/m06hf/geoms/mol2/8131312.out
 31 34 0 0 0
SMALL
GASTEIGER

@<TRIPOS>ATOM
      1 C           0.1728   -0.1172   -0.4388 C.ar    1  LIG1        0.1605
      2 N           1.3980   -0.0899    0.0889 N.ar    1  LIG1       -0.1338
      3 C           1.2437    2.1554   -0.0446 C.ar    1  LIG1        0.2193
      4 N          -0.5304    0.9580   -0.7757 N.ar    1  LIG1       -0.1338
      5 N           1.9486    1.0649    0.2915 N.ar    1  LIG1       -0.1243
      6 N           0.0168    2.1200   -0.5741 N.ar    1  LIG1       -0.1243
      7 H          -0.2779   -1.0838   -0.6036 H       1  LIG1        0.1085
      8 C           1.8370    3.4618    0.1750 C.ar    1  LIG1        0.0880
      9 C           3.0644    3.8325    0.6902 C.ar    1  LIG1       -0.0326
     10 C           3.1059    5.2444    0.6713 C.ar    1  LIG1       -0.0343
     11 C           1.9040    5.6880    0.1410 C.ar    1  LIG1        0.0634
     12 N           1.1486    4.5959   -0.1511 N.ar    1  LIG1       -0.3505
     13 H           0.2529    4.5869   -0.6188 H       1  LIG1        0.1660
     14 H           3.8174    3.1494    1.0444 H       1  LIG1        0.0640
     15 H           3.8966    5.8836    1.0251 H       1  LIG1        0.0639
     16 C           1.4260    7.0481   -0.1041 C.ar    1  LIG1        0.0634
     17 C           2.0924    8.1545   -0.5884 C.ar    1  LIG1       -0.0343
     18 C           1.1625    9.2242   -0.6309 C.ar    1  LIG1       -0.0328
     19 C          -0.0427    8.7324   -0.1727 C.ar    1  LIG1        0.0826
     20 N           0.1313    7.4154    0.1382 N.ar    1  LIG1       -0.3506
     21 H          -0.5765    6.8454    0.5770 H       1  LIG1        0.1660
     22 H           3.1230    8.1688   -0.8996 H       1  LIG1        0.0639
     23 H           1.3425   10.2314   -0.9661 H       1  LIG1        0.0640
     24 C          -1.3405    9.3664    0.0156 C.ar    1  LIG1        0.1509
     25 C          -1.8125   10.6243   -0.1857 C.ar    1  LIG1       -0.0144
     26 C          -3.1961   10.5938    0.2094 C.ar    1  LIG1       -0.0233
     27 C          -3.4432    9.3268    0.6151 C.ar    1  LIG1        0.0926
     28 O          -2.3247    8.5730    0.5011 O.2     1  LIG1       -0.4615
     29 H          -4.3177    8.8277    0.9920 H       1  LIG1        0.1029
     30 H          -1.2535   11.4629   -0.5627 H       1  LIG1        0.0656
     31 H          -3.8990   11.4083    0.1893 H       1  LIG1        0.0649
@<TRIPOS>BOND
     1    23    18    1
     2    22    17    1
     3     4     6   ar
     4     4     1   ar
     5    18    17   ar
     6    18    19   ar
     7    13    12    1
     8     7     1    1
     9    17    16   ar
    10     6     3   ar
    11    30    25    1
    12     1     2   ar
    13    25    24   ar
    14    25    26   ar
    15    19    24    1
    16    19    20   ar
    17    12    11   ar
    18    12     8   ar
    19    16    20   ar
    20    16    11    1
    21     3     8    1
    22     3     5   ar
    23    24    28   ar
    24     2     5   ar
    25    20    21    1
    26    11    10   ar
    27     8     9   ar
    28    31    26    1
    29    26    27   ar
    30    28    27   ar
    31    27    29    1
    32    10     9   ar
    33    10    15    1
    34     9    14    1
