@<TRIPOS>MOLECULE
mol_data/opt/m06hf/geoms/mol2/81312.out
 23 25 0 0 0
SMALL
GASTEIGER

@<TRIPOS>ATOM
      1 C          -0.0308    0.0042   -0.0004 C.ar    1  LIG1        0.1605
      2 N           1.3031   -0.0061   -0.0003 N.ar    1  LIG1       -0.1338
      3 C           1.1703    2.2444   -0.0001 C.ar    1  LIG1        0.2193
      4 N          -0.7801    1.1015   -0.0004 N.ar    1  LIG1       -0.1338
      5 N           1.9203    1.1330   -0.0001 N.ar    1  LIG1       -0.1243
      6 N          -0.1667    2.2472   -0.0002 N.ar    1  LIG1       -0.1243
      7 H          -0.5373   -0.9489   -0.0007 H       1  LIG1        0.1085
      8 C           1.8411    3.5327    0.0004 C.ar    1  LIG1        0.0880
      9 C           3.1853    3.8588    0.0009 C.ar    1  LIG1       -0.0325
     10 C           3.2648    5.2674    0.0004 C.ar    1  LIG1       -0.0327
     11 C           1.9635    5.7500    0.0009 C.ar    1  LIG1        0.0826
     12 N           1.1195    4.6897    0.0008 N.ar    1  LIG1       -0.3492
     13 H           0.1089    4.7354    0.0009 H       1  LIG1        0.1661
     14 H           3.9948    3.1489    0.0010 H       1  LIG1        0.0640
     15 H           4.1576    5.8694    0.0003 H       1  LIG1        0.0640
     16 C           1.4443    7.1115    0.0011 C.ar    1  LIG1        0.1509
     17 C           2.0288    8.3382    0.0010 C.ar    1  LIG1       -0.0144
     18 C           0.9476    9.2873    0.0016 C.ar    1  LIG1       -0.0233
     19 C          -0.1922    8.5574    0.0015 C.ar    1  LIG1        0.0926
     20 O           0.0976    7.2373    0.0014 O.2     1  LIG1       -0.4615
     21 H          -1.2356    8.8170    0.0018 H       1  LIG1        0.1029
     22 H           3.0857    8.5431    0.0007 H       1  LIG1        0.0656
     23 H           1.0213   10.3611    0.0018 H       1  LIG1        0.0649
@<TRIPOS>BOND
     1     7     1    1
     2     1     4   ar
     3     1     2   ar
     4     4     6   ar
     5     2     5   ar
     6     6     3   ar
     7     5     3   ar
     8     3     8    1
     9    15    10    1
    10     8    12   ar
    11     8     9   ar
    12    10    11   ar
    13    10     9   ar
    14    22    17    1
    15    12    13    1
    16    12    11   ar
    17    11    16    1
    18     9    14    1
    19    17    16   ar
    20    17    18   ar
    21    16    20   ar
    22    20    19   ar
    23    19    18   ar
    24    19    21    1
    25    18    23    1
