@<TRIPOS>MOLECULE
mol_data/opt/m06hf/geoms/mol2/81313.out
 24 26 0 0 0
SMALL
GASTEIGER

@<TRIPOS>ATOM
      1 C           0.0047   -0.0190   -0.2919 C.ar    1  LIG1        0.1605
      2 N           1.3051   -0.0302    0.0070 N.ar    1  LIG1       -0.1338
      3 C           1.1798    2.2207   -0.0288 C.ar    1  LIG1        0.2193
      4 N          -0.7238    1.0784   -0.4615 N.ar    1  LIG1       -0.1338
      5 N           1.9087    1.1080    0.1421 N.ar    1  LIG1       -0.1243
      6 N          -0.1238    2.2238   -0.3261 N.ar    1  LIG1       -0.1243
      7 H          -0.4897   -0.9718   -0.4037 H       1  LIG1        0.1085
      8 C           1.8325    3.5098    0.1122 C.ar    1  LIG1        0.0880
      9 C           3.1429    3.8458    0.3933 C.ar    1  LIG1       -0.0326
     10 C           3.2103    5.2572    0.3988 C.ar    1  LIG1       -0.0343
     11 C           1.9404    5.7355    0.1155 C.ar    1  LIG1        0.0634
     12 N           1.1197    4.6638   -0.0506 N.ar    1  LIG1       -0.3505
     13 H           0.1570    4.6835   -0.3579 H       1  LIG1        0.1660
     14 H           3.9354    3.1415    0.5818 H       1  LIG1        0.0640
     15 H           4.0674    5.8739    0.6091 H       1  LIG1        0.0639
     16 C           1.4486    7.1089   -0.0041 C.ar    1  LIG1        0.0629
     17 C           2.0049    8.2082   -0.6170 C.ar    1  LIG1       -0.0350
     18 C           1.1057    9.2950   -0.4315 C.ar    1  LIG1       -0.0438
     19 C           0.0343    8.8192    0.2853 C.ar    1  LIG1        0.0022
     20 N           0.2486    7.4947    0.5340 N.ar    1  LIG1       -0.3595
     21 H          -0.3226    6.9120    1.1253 H       1  LIG1        0.1654
     22 H          -0.8536    9.3147    0.6369 H       1  LIG1        0.0807
     23 H           2.9368    8.2093   -1.1574 H       1  LIG1        0.0639
     24 H           1.2253   10.3023   -0.7919 H       1  LIG1        0.0633
@<TRIPOS>BOND
     1    23    17    1
     2    24    18    1
     3    17    18   ar
     4    17    16   ar
     5     4     6   ar
     6     4     1   ar
     7    18    19   ar
     8     7     1    1
     9    13    12    1
    10     6     3   ar
    11     1     2   ar
    12    12     8   ar
    13    12    11   ar
    14     3     8    1
    15     3     5   ar
    16    16    11    1
    17    16    20   ar
    18     2     5   ar
    19     8     9   ar
    20    11    10   ar
    21    19    20   ar
    22    19    22    1
    23     9    10   ar
    24     9    14    1
    25    10    15    1
    26    20    21    1
