@<TRIPOS>MOLECULE
mol_data/opt/m06hf/geoms/mol2/81312-.out
 23 25 0 0 0
SMALL
GASTEIGER

@<TRIPOS>ATOM
      1 C          -0.0302   -0.0057   -0.0006 C.ar    1  LIG1        0.1605
      2 N           1.3042   -0.0116   -0.0004 N.ar    1  LIG1       -0.1338
      3 C           1.1654    2.2380   -0.0001 C.ar    1  LIG1        0.2193
      4 N          -0.7822    1.0893   -0.0006 N.ar    1  LIG1       -0.1338
      5 N           1.9180    1.1285   -0.0001 N.ar    1  LIG1       -0.1243
      6 N          -0.1716    2.2365   -0.0003 N.ar    1  LIG1       -0.1243
      7 H          -0.5341   -0.9600   -0.0009 H       1  LIG1        0.1085
      8 C           1.8324    3.5275    0.0004 C.ar    1  LIG1        0.0880
      9 C           3.1741    3.8605    0.0010 C.ar    1  LIG1       -0.0325
     10 C           3.2450    5.2700    0.0006 C.ar    1  LIG1       -0.0327
     11 C           1.9420    5.7460    0.0010 C.ar    1  LIG1        0.0826
     12 N           1.1024    4.6807    0.0007 N.ar    1  LIG1       -0.3492
     13 H           0.0921    4.6924    0.0006 H       1  LIG1        0.1661
     14 H           3.9878    3.1550    0.0012 H       1  LIG1        0.0640
     15 H           4.1272    5.8863    0.0006 H       1  LIG1        0.0640
     16 C           1.4612    7.1212    0.0012 C.ar    1  LIG1        0.1509
     17 C           0.2240    7.6878    0.0019 C.ar    1  LIG1       -0.0144
     18 C           0.4435    9.1088    0.0017 C.ar    1  LIG1       -0.0233
     19 C           1.7871    9.2767    0.0010 C.ar    1  LIG1        0.0926
     20 O           2.4099    8.0802    0.0007 O.2     1  LIG1       -0.4615
     21 H           2.4209   10.1451    0.0007 H       1  LIG1        0.1029
     22 H          -0.7247    7.1774    0.0025 H       1  LIG1        0.0656
     23 H          -0.3014    9.8853    0.0020 H       1  LIG1        0.0649
@<TRIPOS>BOND
     1     7     1    1
     2     4     1   ar
     3     4     6   ar
     4     1     2   ar
     5     2     5   ar
     6     6     3   ar
     7     3     5   ar
     8     3     8    1
     9     8    12   ar
    10     8     9   ar
    11    15    10    1
    12    13    12    1
    13    10    11   ar
    14    10     9   ar
    15    20    19   ar
    16    20    16   ar
    17    21    19    1
    18    12    11   ar
    19    11    16    1
    20     9    14    1
    21    19    18   ar
    22    16    17   ar
    23    18    17   ar
    24    18    23    1
    25    17    22    1
