@<TRIPOS>MOLECULE
mol_data/opt/m06hf/geoms/mol2/813138.out
 30 33 0 0 0
SMALL
GASTEIGER

@<TRIPOS>ATOM
      1 C           0.1405   -0.1029   -0.3694 C.ar    1  LIG1        0.1605
      2 N           1.3752   -0.0758    0.1354 N.ar    1  LIG1       -0.1338
      3 C           1.2267    2.1675   -0.0185 C.ar    1  LIG1        0.2193
      4 N          -0.5646    0.9716   -0.7052 N.ar    1  LIG1       -0.1338
      5 N           1.9339    1.0793    0.3158 N.ar    1  LIG1       -0.1243
      6 N          -0.0090    2.1331   -0.5253 N.ar    1  LIG1       -0.1243
      7 H          -0.3170   -1.0693   -0.5163 H       1  LIG1        0.1085
      8 C           1.8291    3.4758    0.1768 C.ar    1  LIG1        0.0880
      9 C           3.0714    3.8467    0.6536 C.ar    1  LIG1       -0.0326
     10 C           3.1166    5.2584    0.6195 C.ar    1  LIG1       -0.0343
     11 C           1.9011    5.6989    0.1210 C.ar    1  LIG1        0.0634
     12 N           1.1335    4.6069   -0.1392 N.ar    1  LIG1       -0.3505
     13 H           0.2238    4.5924   -0.5797 H       1  LIG1        0.1660
     14 H           3.8330    3.1649    0.9915 H       1  LIG1        0.0640
     15 H           3.9197    5.8980    0.9434 H       1  LIG1        0.0639
     16 C           1.4206    7.0596   -0.1186 C.ar    1  LIG1        0.0634
     17 C           2.0899    8.1657   -0.6174 C.ar    1  LIG1       -0.0343
     18 C           1.1683    9.2361   -0.6514 C.ar    1  LIG1       -0.0326
     19 C          -0.0313    8.7447   -0.1740 C.ar    1  LIG1        0.0880
     20 N           0.1375    7.4277    0.1420 N.ar    1  LIG1       -0.3505
     21 H          -0.5794    6.8677    0.5828 H       1  LIG1        0.1660
     22 H           3.1164    8.1721   -0.9416 H       1  LIG1        0.0639
     23 H           1.3328   10.2449   -0.9894 H       1  LIG1        0.0640
     24 C          -1.3215    9.3847    0.0217 C.ar    1  LIG1        0.2193
     25 N          -1.4545   10.6757   -0.3127 N.ar    1  LIG1       -0.1243
     26 C          -3.5923   10.4699    0.3734 C.ar    1  LIG1        0.1605
     27 N          -2.3047    8.6357    0.5288 N.ar    1  LIG1       -0.1243
     28 N          -2.6145   11.2240   -0.1319 N.ar    1  LIG1       -0.1338
     29 N          -3.4664    9.1909    0.7091 N.ar    1  LIG1       -0.1338
     30 H          -4.5552   10.9347    0.5204 H       1  LIG1        0.1085
@<TRIPOS>BOND
     1    23    18    1
     2    22    17    1
     3     4     6   ar
     4     4     1   ar
     5    18    17   ar
     6    18    19   ar
     7    17    16   ar
     8    13    12    1
     9     6     3   ar
    10     7     1    1
    11     1     2   ar
    12    25    28   ar
    13    25    24   ar
    14    19    24    1
    15    19    20   ar
    16    12    11   ar
    17    12     8   ar
    18    28    26   ar
    19    16    11    1
    20    16    20   ar
    21     3     8    1
    22     3     5   ar
    23    24    27   ar
    24    11    10   ar
    25     2     5   ar
    26    20    21    1
    27     8     9   ar
    28    26    30    1
    29    26    29   ar
    30    27    29   ar
    31    10     9   ar
    32    10    15    1
    33     9    14    1
