@<TRIPOS>MOLECULE
mol_data/opt/m06hf/geoms/mol2/8131313-.out
 32 35 0 0 0
SMALL
GASTEIGER

@<TRIPOS>ATOM
      1 C           0.0543   -0.1031   -0.0008 C.ar    1  LIG1        0.1605
      2 N           1.3890   -0.1002   -0.0006 N.ar    1  LIG1       -0.1338
      3 C           1.2363    2.1491   -0.0001 C.ar    1  LIG1        0.2193
      4 N          -0.7049    0.9869   -0.0006 N.ar    1  LIG1       -0.1338
      5 N           1.9964    1.0429   -0.0002 N.ar    1  LIG1       -0.1243
      6 N          -0.1017    2.1377   -0.0003 N.ar    1  LIG1       -0.1243
      7 H          -0.4425   -1.0615   -0.0011 H       1  LIG1        0.1085
      8 C           1.8873    3.4432    0.0004 C.ar    1  LIG1        0.0880
      9 C           3.2210    3.8036    0.0007 C.ar    1  LIG1       -0.0326
     10 C           3.2635    5.2124    0.0010 C.ar    1  LIG1       -0.0343
     11 C           1.9514    5.6741    0.0010 C.ar    1  LIG1        0.0634
     12 N           1.1369    4.5868    0.0006 N.ar    1  LIG1       -0.3505
     13 H           0.1275    4.5568    0.0003 H       1  LIG1        0.1660
     14 H           4.0478    3.1136    0.0007 H       1  LIG1        0.0640
     15 H           4.1408    5.8363    0.0014 H       1  LIG1        0.0639
     16 C           1.4617    7.0488    0.0013 C.ar    1  LIG1        0.0634
     17 C           2.1746    8.2296    0.0011 C.ar    1  LIG1       -0.0343
     18 C           1.2393    9.2934    0.0017 C.ar    1  LIG1       -0.0343
     19 C          -0.0241    8.7341    0.0022 C.ar    1  LIG1        0.0633
     20 N           0.1317    7.3786    0.0020 N.ar    1  LIG1       -0.3519
     21 H          -0.6415    6.7345    0.0023 H       1  LIG1        0.1660
     22 H           3.2484    8.3120    0.0006 H       1  LIG1        0.0639
     23 H           1.4716   10.3453    0.0017 H       1  LIG1        0.0639
     24 C          -1.3528    9.3422    0.0029 C.ar    1  LIG1        0.0629
     25 C          -2.6133    8.7797    0.0034 C.ar    1  LIG1       -0.0350
     26 C          -3.5545    9.8453    0.0040 C.ar    1  LIG1       -0.0438
     27 C          -2.8391   11.0176    0.0039 C.ar    1  LIG1        0.0022
     28 N          -1.5129   10.6986    0.0032 N.ar    1  LIG1       -0.3595
     29 H          -0.7559   11.3618    0.0030 H       1  LIG1        0.1654
     30 H          -3.1652   12.0430    0.0042 H       1  LIG1        0.0807
     31 H          -2.8441    7.7270    0.0034 H       1  LIG1        0.0639
     32 H          -4.6276    9.7583    0.0045 H       1  LIG1        0.0633
@<TRIPOS>BOND
     1     7     1    1
     2     1     4   ar
     3     1     2   ar
     4     4     6   ar
     5     2     5   ar
     6     6     3   ar
     7     5     3   ar
     8     3     8    1
     9    13    12    1
    10     8    12   ar
    11     8     9   ar
    12    22    17    1
    13    12    11   ar
    14    14     9    1
    15     9    10   ar
    16    11    10   ar
    17    11    16    1
    18    10    15    1
    19    17    16   ar
    20    17    18   ar
    21    16    20   ar
    22    18    23    1
    23    18    19   ar
    24    20    19   ar
    25    20    21    1
    26    19    24    1
    27    24    28   ar
    28    24    25   ar
    29    29    28    1
    30    28    27   ar
    31    31    25    1
    32    25    26   ar
    33    27    26   ar
    34    27    30    1
    35    26    32    1
