@<TRIPOS>MOLECULE
mol_data/opt/m06hf/geoms/mol2/8134.out
 26 28 0 0 0
SMALL
GASTEIGER

@<TRIPOS>ATOM
      1 C           0.0256   -0.0360   -0.3339 C.ar    1  LIG1        0.1605
      2 N           1.3222   -0.0464   -0.0193 N.ar    1  LIG1       -0.1338
      3 C           1.1913    2.2043   -0.0378 C.ar    1  LIG1        0.2193
      4 N          -0.7034    1.0608   -0.5047 N.ar    1  LIG1       -0.1338
      5 N           1.9211    1.0923    0.1327 N.ar    1  LIG1       -0.1243
      6 N          -0.1081    2.2065   -0.3522 N.ar    1  LIG1       -0.1243
      7 H          -0.4648   -0.9892   -0.4589 H       1  LIG1        0.1085
      8 C           1.8381    3.4940    0.1265 C.ar    1  LIG1        0.0879
      9 C           3.1444    3.8304    0.4272 C.ar    1  LIG1       -0.0326
     10 C           3.2065    5.2410    0.4437 C.ar    1  LIG1       -0.0357
     11 C           1.9356    5.7200    0.1551 C.ar    1  LIG1        0.0470
     12 N           1.1245    4.6469   -0.0286 N.ar    1  LIG1       -0.3516
     13 H           0.1569    4.6667   -0.3206 H       1  LIG1        0.1660
     14 H           3.9370    3.1270    0.6178 H       1  LIG1        0.0640
     15 H           4.0627    5.8518    0.6756 H       1  LIG1        0.0639
     16 C           2.2516    8.1114   -0.4552 C.ar    1  LIG1       -0.0526
     17 C           1.7852    9.4185   -0.5386 C.ar    1  LIG1       -0.0611
     18 C           1.4306    7.1041    0.0585 C.ar    1  LIG1       -0.0017
     19 C           0.4926    9.7300   -0.1229 C.ar    1  LIG1       -0.0617
     20 H           2.4267   10.1925   -0.9393 H       1  LIG1        0.0618
     21 C           0.1377    7.4228    0.4836 C.ar    1  LIG1       -0.0526
     22 C          -0.3306    8.7289    0.3861 C.ar    1  LIG1       -0.0611
     23 H          -0.4906    6.6548    0.9187 H       1  LIG1        0.0624
     24 H           0.1295   10.7466   -0.1945 H       1  LIG1        0.0618
     25 H           3.2444    7.8594   -0.8050 H       1  LIG1        0.0624
     26 H          -1.3320    8.9661    0.7204 H       1  LIG1        0.0618
@<TRIPOS>BOND
     1    20    17    1
     2    25    16    1
     3    17    16   ar
     4    17    19   ar
     5     4     6   ar
     6     4     1   ar
     7     7     1    1
     8    16    18   ar
     9     6     3   ar
    10     1     2   ar
    11    13    12    1
    12    24    19    1
    13    19    22   ar
    14     3     8    1
    15     3     5   ar
    16    12     8   ar
    17    12    11   ar
    18     2     5   ar
    19    18    11    1
    20    18    21   ar
    21     8     9   ar
    22    11    10   ar
    23    22    21   ar
    24    22    26    1
    25     9    10   ar
    26     9    14    1
    27    10    15    1
    28    21    23    1
