@<TRIPOS>MOLECULE
mol_data/opt/m06hf/geoms/mol2/8134-.out
 26 28 0 0 0
SMALL
GASTEIGER

@<TRIPOS>ATOM
      1 C          -0.0047   -0.0197   -0.3312 C.ar    1  LIG1        0.1605
      2 N           1.2916   -0.0414   -0.0171 N.ar    1  LIG1       -0.1338
      3 C           1.1806    2.2104   -0.0365 C.ar    1  LIG1        0.2193
      4 N          -0.7243    1.0835   -0.5024 N.ar    1  LIG1       -0.1338
      5 N           1.9006    1.0923    0.1341 N.ar    1  LIG1       -0.1243
      6 N          -0.1190    2.2238   -0.3506 N.ar    1  LIG1       -0.1243
      7 H          -0.5037   -0.9686   -0.4558 H       1  LIG1        0.1085
      8 C           1.8385    3.4946    0.1265 C.ar    1  LIG1        0.0879
      9 C           3.1477    3.8198    0.4263 C.ar    1  LIG1       -0.0326
     10 C           3.2221    5.2299    0.4418 C.ar    1  LIG1       -0.0357
     11 C           1.9553    5.7197    0.1534 C.ar    1  LIG1        0.0470
     12 N           1.1349    4.6535   -0.0293 N.ar    1  LIG1       -0.3516
     13 H           0.1674    4.6815   -0.3210 H       1  LIG1        0.1660
     14 H           3.9343    3.1097    0.6173 H       1  LIG1        0.0640
     15 H           4.0838    5.8332    0.6730 H       1  LIG1        0.0639
     16 C           0.1724    7.4381    0.4814 C.ar    1  LIG1       -0.0526
     17 C          -0.2847    8.7481    0.3832 C.ar    1  LIG1       -0.0611
     18 C           1.4623    7.1080    0.0561 C.ar    1  LIG1       -0.0017
     19 C           0.5468    9.7417   -0.1269 C.ar    1  LIG1       -0.0617
     20 H          -1.2839    8.9942    0.7177 H       1  LIG1        0.0618
     21 C           2.2918    8.1078   -0.4586 C.ar    1  LIG1       -0.0526
     22 C           1.8366    9.4188   -0.5428 C.ar    1  LIG1       -0.0611
     23 H           3.2822    7.8470   -0.8086 H       1  LIG1        0.0624
     24 H           0.1924   10.7613   -0.1991 H       1  LIG1        0.0618
     25 H          -0.4625    6.6759    0.9173 H       1  LIG1        0.0624
     26 H           2.4845   10.1870   -0.9442 H       1  LIG1        0.0618
@<TRIPOS>BOND
     1    26    22    1
     2    23    21    1
     3    22    21   ar
     4    22    19   ar
     5     4     6   ar
     6     4     1   ar
     7    21    18   ar
     8     7     1    1
     9     6     3   ar
    10     1     2   ar
    11    13    12    1
    12    24    19    1
    13    19    17   ar
    14     3     8    1
    15     3     5   ar
    16    12     8   ar
    17    12    11   ar
    18     2     5   ar
    19    18    11    1
    20    18    16   ar
    21     8     9   ar
    22    11    10   ar
    23    17    16   ar
    24    17    20    1
    25     9    10   ar
    26     9    14    1
    27    10    15    1
    28    16    25    1
