@<TRIPOS>MOLECULE
mol_data/opt/m06hf/geoms/mol2/8135.out
 23 25 0 0 0
SMALL
GASTEIGER

@<TRIPOS>ATOM
      1 C          -0.0298    0.0102   -0.2049 C.ar    1  LIG1        0.1605
      2 N           1.2916   -0.0166   -0.0254 N.ar    1  LIG1       -0.1338
      3 C           1.1837    2.2345   -0.0056 C.ar    1  LIG1        0.2193
      4 N          -0.7609    1.1161   -0.2887 N.ar    1  LIG1       -0.1338
      5 N           1.9152    1.1148    0.0768 N.ar    1  LIG1       -0.1243
      6 N          -0.1407    2.2536   -0.1862 N.ar    1  LIG1       -0.1243
      7 H          -0.5409   -0.9367   -0.2888 H       1  LIG1        0.1085
      8 C           1.8578    3.5171    0.1047 C.ar    1  LIG1        0.0880
      9 C           3.1914    3.8355    0.2778 C.ar    1  LIG1       -0.0326
     10 C           3.2726    5.2448    0.3089 C.ar    1  LIG1       -0.0352
     11 C           1.9857    5.7380    0.1474 C.ar    1  LIG1        0.0536
     12 N           1.1450    4.6776    0.0299 N.ar    1  LIG1       -0.3512
     13 H           0.1504    4.7108   -0.1520 H       1  LIG1        0.1660
     14 H           3.9907    3.1212    0.3790 H       1  LIG1        0.0640
     15 H           4.1519    5.8474    0.4606 H       1  LIG1        0.0639
     16 C           1.5085    7.1213    0.0970 C.ar    1  LIG1        0.0355
     17 C           2.1505    8.1974   -0.4422 C.ar    1  LIG1       -0.0455
     18 C           1.3996    9.4109   -0.3086 C.ar    1  LIG1       -0.0541
     19 C           0.2090    9.2192    0.3191 C.ar    1  LIG1       -0.0237
     20 S          -0.0136    7.5770    0.7825 S.2     1  LIG1       -0.0952
     21 H          -0.5509    9.9499    0.5430 H       1  LIG1        0.0693
     22 H           3.1072    8.1191   -0.9372 H       1  LIG1        0.0629
     23 H           1.7321   10.3698   -0.6763 H       1  LIG1        0.0623
@<TRIPOS>BOND
     1    22    17    1
     2    23    18    1
     3    17    18   ar
     4    17    16   ar
     5    18    19   ar
     6     7     1    1
     7     4     1   ar
     8     4     6   ar
     9     1     2   ar
    10     6     3   ar
    11    13    12    1
    12     2     5   ar
    13     3     5   ar
    14     3     8    1
    15    12     8   ar
    16    12    11   ar
    17    16    11    1
    18    16    20   ar
    19     8     9   ar
    20    11    10   ar
    21     9    10   ar
    22     9    14    1
    23    10    15    1
    24    19    21    1
    25    19    20   ar
