@<TRIPOS>MOLECULE
mol_data/opt/m06hf/geoms/mol2/8135-4.out
 33 36 0 0 0
SMALL
GASTEIGER

@<TRIPOS>ATOM
      1 C          -0.1137   -0.0284   -0.5898 C.ar    1  LIG1        0.1605
      2 N           1.2137   -0.0799   -0.4648 N.ar    1  LIG1       -0.1338
      3 C           1.1246    2.1572   -0.2009 C.ar    1  LIG1        0.2193
      4 N          -0.8383    1.0828   -0.5242 N.ar    1  LIG1       -0.1338
      5 N           1.8495    1.0313   -0.2664 N.ar    1  LIG1       -0.1243
      6 N          -0.2055    2.2010   -0.3252 N.ar    1  LIG1       -0.1243
      7 H          -0.6349   -0.9587   -0.7562 H       1  LIG1        0.1085
      8 C           1.8165    3.4158    0.0161 C.ar    1  LIG1        0.0880
      9 C           3.1591    3.6996    0.1818 C.ar    1  LIG1       -0.0326
     10 C           3.2627    5.0984    0.3428 C.ar    1  LIG1       -0.0352
     11 C           1.9782    5.6199    0.2708 C.ar    1  LIG1        0.0537
     12 N           1.1199    4.5870    0.0730 N.ar    1  LIG1       -0.3512
     13 H           0.1228    4.6568   -0.0777 H       1  LIG1        0.1660
     14 H           3.9497    2.9687    0.1901 H       1  LIG1        0.0640
     15 H           4.1572    5.6714    0.5203 H       1  LIG1        0.0639
     16 C           1.4940    6.9968    0.3804 C.ar    1  LIG1        0.0361
     17 C           0.3392    7.4371    0.9632 C.ar    1  LIG1       -0.0449
     18 C           0.1880    8.8561    0.8790 C.ar    1  LIG1       -0.0463
     19 C           1.2295    9.4665    0.2402 C.ar    1  LIG1        0.0200
     20 S           2.3972    8.3058   -0.2927 S.2     1  LIG1       -0.0868
     21 H          -0.3539    6.7820    1.4717 H       1  LIG1        0.0630
     22 H          -0.6370    9.4032    1.3115 H       1  LIG1        0.0629
     23 C           2.6774   11.5033    0.0630 C.ar    1  LIG1       -0.0535
     24 C           2.8319   12.8648   -0.1765 C.ar    1  LIG1       -0.0612
     25 C           1.4135   10.9123   -0.0199 C.ar    1  LIG1       -0.0113
     26 C           1.7261   13.6500   -0.4926 C.ar    1  LIG1       -0.0617
     27 H           3.8143   13.3125   -0.1073 H       1  LIG1        0.0618
     28 C           0.3083   11.7031   -0.3495 C.ar    1  LIG1       -0.0535
     29 C           0.4643   13.0661   -0.5763 C.ar    1  LIG1       -0.0612
     30 H          -0.6653   11.2404   -0.4473 H       1  LIG1        0.0624
     31 H           1.8474   14.7093   -0.6763 H       1  LIG1        0.0618
     32 H           3.5346   10.8999    0.3348 H       1  LIG1        0.0624
     33 H          -0.3975   13.6686   -0.8312 H       1  LIG1        0.0618
@<TRIPOS>BOND
     1    33    29    1
     2     7     1    1
     3    31    26    1
     4     1     4   ar
     5     1     2   ar
     6    29    26   ar
     7    29    28   ar
     8     4     6   ar
     9    26    24   ar
    10     2     5   ar
    11    30    28    1
    12    28    25   ar
    13     6     3   ar
    14    20    19   ar
    15    20    16   ar
    16     5     3   ar
    17     3     8    1
    18    24    27    1
    19    24    23   ar
    20    13    12    1
    21    25    23   ar
    22    25    19    1
    23     8    12   ar
    24     8     9   ar
    25    23    32    1
    26    12    11   ar
    27     9    14    1
    28     9    10   ar
    29    19    18   ar
    30    11    10   ar
    31    11    16    1
    32    10    15    1
    33    16    17   ar
    34    18    17   ar
    35    18    22    1
    36    17    21    1
