@<TRIPOS>MOLECULE
mol_data/opt/m06hf/geoms/mol2/8138-5.out
 29 32 0 0 0
SMALL
GASTEIGER

@<TRIPOS>ATOM
      1 C          -0.0586    0.0009   -0.0003 C.ar    1  LIG1        0.1605
      2 N           1.2748   -0.0190   -0.0005 N.ar    1  LIG1       -0.1338
      3 C           1.1547    2.2302    0.0000 C.ar    1  LIG1        0.2193
      4 N          -0.8016    1.1025    0.0001 N.ar    1  LIG1       -0.1338
      5 N           1.8982    1.1179   -0.0003 N.ar    1  LIG1       -0.1243
      6 N          -0.1805    2.2446    0.0003 N.ar    1  LIG1       -0.1243
      7 H          -0.5704   -0.9494   -0.0004 H       1  LIG1        0.1085
      8 C           1.8392    3.5166    0.0003 C.ar    1  LIG1        0.0880
      9 C           3.1921    3.8193    0.0002 C.ar    1  LIG1       -0.0325
     10 C           3.2944    5.2250    0.0005 C.ar    1  LIG1       -0.0325
     11 C           1.9995    5.7200    0.0008 C.ar    1  LIG1        0.0880
     12 N           1.1341    4.6762    0.0007 N.ar    1  LIG1       -0.3491
     13 H           0.1238    4.7518    0.0008 H       1  LIG1        0.1661
     14 H           3.9886    3.0952   -0.0001 H       1  LIG1        0.0640
     15 H           4.1869    5.8265    0.0005 H       1  LIG1        0.0640
     16 C           1.5093    7.0929    0.0012 C.ar    1  LIG1        0.2194
     17 N           0.1892    7.2809    0.0014 N.ar    1  LIG1       -0.1237
     18 C           0.6373    9.4919    0.0019 C.ar    1  LIG1        0.2099
     19 N           2.4076    8.0868    0.0013 N.ar    1  LIG1       -0.1237
     20 N          -0.2541    8.5002    0.0018 N.ar    1  LIG1       -0.1246
     21 N           1.9660    9.2999    0.0017 N.ar    1  LIG1       -0.1246
     22 C           0.1455   10.8689    0.0022 C.ar    1  LIG1        0.0598
     23 C           0.9062   12.0046    0.0022 C.ar    1  LIG1       -0.0438
     24 C           0.1045   13.1855    0.0027 C.ar    1  LIG1       -0.0540
     25 C          -1.2294   12.9009    0.0030 C.ar    1  LIG1       -0.0236
     26 S          -1.5437   11.2137    0.0022 S.2     1  LIG1       -0.0934
     27 H          -2.0522   13.5978    0.0035 H       1  LIG1        0.0693
     28 H           1.9857   11.9805    0.0021 H       1  LIG1        0.0630
     29 H           0.5030   14.1882    0.0029 H       1  LIG1        0.0623
@<TRIPOS>BOND
     1     2     5   ar
     2     2     1   ar
     3     7     1    1
     4     5     3   ar
     5     1     4   ar
     6    14     9    1
     7     3     6   ar
     8     3     8    1
     9     4     6   ar
    10     9     8   ar
    11     9    10   ar
    12     8    12   ar
    13    10    15    1
    14    10    11   ar
    15    12    11   ar
    16    12    13    1
    17    11    16    1
    18    16    19   ar
    19    16    17   ar
    20    19    21   ar
    21    17    20   ar
    22    21    18   ar
    23    20    18   ar
    24    18    22    1
    25    28    23    1
    26    26    22   ar
    27    26    25   ar
    28    22    23   ar
    29    23    24   ar
    30    24    29    1
    31    24    25   ar
    32    25    27    1
