@<TRIPOS>MOLECULE
mol_data/opt/m06hf/geoms/mol2/81388.out
 28 31 0 0 0
SMALL
GASTEIGER

@<TRIPOS>ATOM
      1 C          -0.0450    0.0033   -0.0004 C.ar    1  LIG1        0.1605
      2 N           1.2885   -0.0088   -0.0006 N.ar    1  LIG1       -0.1338
      3 C           1.1543    2.2386    0.0000 C.ar    1  LIG1        0.2193
      4 N          -0.7949    1.1005   -0.0001 N.ar    1  LIG1       -0.1338
      5 N           1.9049    1.1322   -0.0003 N.ar    1  LIG1       -0.1243
      6 N          -0.1803    2.2461    0.0001 N.ar    1  LIG1       -0.1243
      7 H          -0.5511   -0.9501   -0.0007 H       1  LIG1        0.1085
      8 C           1.8327    3.5302    0.0003 C.ar    1  LIG1        0.0880
      9 C           3.1856    3.8376    0.0003 C.ar    1  LIG1       -0.0325
     10 C           3.2823    5.2424    0.0006 C.ar    1  LIG1       -0.0325
     11 C           1.9846    5.7323    0.0009 C.ar    1  LIG1        0.0880
     12 N           1.1224    4.6839    0.0006 N.ar    1  LIG1       -0.3491
     13 H           0.1114    4.7536    0.0007 H       1  LIG1        0.1661
     14 H           3.9843    3.1160    0.0000 H       1  LIG1        0.0640
     15 H           4.1725    5.8477    0.0008 H       1  LIG1        0.0640
     16 C           1.4922    7.1000    0.0013 C.ar    1  LIG1        0.2194
     17 N           2.3860    8.0970    0.0015 N.ar    1  LIG1       -0.1236
     18 C           0.6102    9.4815    0.0020 C.ar    1  LIG1        0.2435
     19 N           0.1675    7.2802    0.0014 N.ar    1  LIG1       -0.1236
     20 N           1.9334    9.3092    0.0019 N.ar    1  LIG1       -0.1218
     21 N          -0.2832    8.4963    0.0018 N.ar    1  LIG1       -0.1218
     22 C           0.0976   10.8854    0.0025 C.ar    1  LIG1        0.2434
     23 N           0.9958   11.8673    0.0024 N.ar    1  LIG1       -0.1224
     24 C          -0.7723   13.2590    0.0033 C.ar    1  LIG1        0.1605
     25 N          -1.2229   11.0545    0.0030 N.ar    1  LIG1       -0.1224
     26 N           0.5473   13.0882    0.0028 N.ar    1  LIG1       -0.1338
     27 N          -1.6688   12.2762    0.0034 N.ar    1  LIG1       -0.1338
     28 H          -1.1444   14.2730    0.0037 H       1  LIG1        0.1085
@<TRIPOS>BOND
     1     7     1    1
     2     2     1   ar
     3     2     5   ar
     4     1     4   ar
     5     5     3   ar
     6     4     6   ar
     7     3     6   ar
     8     3     8    1
     9    14     9    1
    10     9     8   ar
    11     9    10   ar
    12     8    12   ar
    13    12    13    1
    14    12    11   ar
    15    10    15    1
    16    10    11   ar
    17    11    16    1
    18    16    19   ar
    19    16    17   ar
    20    19    21   ar
    21    17    20   ar
    22    21    18   ar
    23    20    18   ar
    24    18    22    1
    25    23    22   ar
    26    23    26   ar
    27    22    25   ar
    28    26    24   ar
    29    25    27   ar
    30    24    27   ar
    31    24    28    1
