@<TRIPOS>MOLECULE
mol_data/opt/m06hf/geoms/mol2/84-.out
 18 19 0 0 0
SMALL
GASTEIGER

@<TRIPOS>ATOM
      1 C          -0.0281   -0.0122    0.0005 C.ar    1  LIG1        0.1605
      2 N           1.3016    0.0016    0.0006 N.ar    1  LIG1       -0.1339
      3 C           1.1308    2.2576   -0.0004 C.ar    1  LIG1        0.2033
      4 N          -0.7967    1.0729    0.0000 N.ar    1  LIG1       -0.1339
      5 N           1.8911    1.1586    0.0001 N.ar    1  LIG1       -0.1258
      6 N          -0.2053    2.2290   -0.0004 N.ar    1  LIG1       -0.1258
      7 H          -0.5191   -0.9738    0.0009 H       1  LIG1        0.1085
      8 C           1.0415    4.7479   -0.0015 C.ar    1  LIG1       -0.0509
      9 C           1.6777    5.9840   -0.0020 C.ar    1  LIG1       -0.0611
     10 C           1.8060    3.5800   -0.0009 C.ar    1  LIG1        0.0226
     11 C           3.0692    6.0542   -0.0019 C.ar    1  LIG1       -0.0617
     12 H           1.0873    6.8902   -0.0024 H       1  LIG1        0.0618
     13 C           3.2002    3.6458   -0.0009 C.ar    1  LIG1       -0.0509
     14 C           3.8284    4.8859   -0.0014 C.ar    1  LIG1       -0.0611
     15 H           3.7751    2.7298   -0.0005 H       1  LIG1        0.0625
     16 H           3.5613    7.0181   -0.0023 H       1  LIG1        0.0618
     17 H          -0.0375    4.6764   -0.0015 H       1  LIG1        0.0625
     18 H           4.9086    4.9392   -0.0013 H       1  LIG1        0.0618
@<TRIPOS>BOND
     1    12     9    1
     2    16    11    1
     3     9    11   ar
     4     9     8   ar
     5    11    14   ar
     6    17     8    1
     7     8    10   ar
     8    14    18    1
     9    14    13   ar
    10    10    13   ar
    11    10     3    1
    12    13    15    1
    13     6     3   ar
    14     6     4   ar
    15     3     5   ar
    16     4     1   ar
    17     5     2   ar
    18     1     2   ar
    19     1     7    1
