@<TRIPOS>MOLECULE
mol_data/opt/m06hf/geoms/mol2/84-13.out
 26 28 0 0 0
SMALL
GASTEIGER

@<TRIPOS>ATOM
      1 C          -0.0539   -0.0792    0.0051 C.ar    1  LIG1        0.1605
      2 N           1.2582   -0.0527    0.2219 N.ar    1  LIG1       -0.1339
      3 C           1.0999    2.1938    0.0022 C.ar    1  LIG1        0.2033
      4 N          -0.8074    0.9952   -0.2117 N.ar    1  LIG1       -0.1339
      5 N           1.8453    1.1054    0.2196 N.ar    1  LIG1       -0.1258
      6 N          -0.2192    2.1527   -0.2124 N.ar    1  LIG1       -0.1258
      7 H          -0.5427   -1.0419    0.0059 H       1  LIG1        0.1085
      8 C           1.0296    4.6720   -0.2461 C.ar    1  LIG1       -0.0503
      9 C           1.6628    5.9072   -0.2588 C.ar    1  LIG1       -0.0520
     10 C           1.7713    3.5153   -0.0023 C.ar    1  LIG1        0.0227
     11 C           3.0371    6.0074   -0.0121 C.ar    1  LIG1       -0.0017
     12 H           1.0910    6.7954   -0.4966 H       1  LIG1        0.0624
     13 C           3.1453    3.6016    0.2339 C.ar    1  LIG1       -0.0503
     14 C           3.7687    4.8404    0.2368 C.ar    1  LIG1       -0.0520
     15 H           3.7083    2.6983    0.4261 H       1  LIG1        0.0625
     16 H          -0.0314    4.5908   -0.4392 H       1  LIG1        0.0625
     17 H           4.8259    4.9156    0.4529 H       1  LIG1        0.0624
     18 C           3.7193    7.3125   -0.0212 C.ar    1  LIG1        0.0465
     19 C           4.9978    7.6530   -0.4116 C.ar    1  LIG1       -0.0364
     20 C           5.1377    9.0563   -0.2363 C.ar    1  LIG1       -0.0438
     21 C           3.9435    9.5235    0.2585 C.ar    1  LIG1        0.0022
     22 N           3.0937    8.4644    0.3751 N.ar    1  LIG1       -0.3607
     23 H           2.1752    8.4993    0.7868 H       1  LIG1        0.1653
     24 H           3.6381   10.5166    0.5390 H       1  LIG1        0.0807
     25 H           5.7282    6.9717   -0.8152 H       1  LIG1        0.0639
     26 H           6.0061    9.6536   -0.4549 H       1  LIG1        0.0633
@<TRIPOS>BOND
     1    25    19    1
     2    12     9    1
     3    26    20    1
     4    16     8    1
     5    19    20   ar
     6    19    18   ar
     7     9     8   ar
     8     9    11   ar
     9     8    10   ar
    10    20    21   ar
    11     6     4   ar
    12     6     3   ar
    13     4     1   ar
    14    18    11    1
    15    18    22   ar
    16    11    14   ar
    17    10     3    1
    18    10    13   ar
    19     3     5   ar
    20     1     7    1
    21     1     2   ar
    22     5     2   ar
    23    13    14   ar
    24    13    15    1
    25    14    17    1
    26    21    22   ar
    27    21    24    1
    28    22    23    1
