@<TRIPOS>MOLECULE
mol_data/opt/m06hf/geoms/mol2/84-12-.out
 25 27 0 0 0
SMALL
GASTEIGER

@<TRIPOS>ATOM
      1 C          -0.0689   -0.0522    0.0013 C.ar    1  LIG1        0.1605
      2 N           1.2613   -0.0458    0.0012 N.ar    1  LIG1       -0.1339
      3 C           1.1032    2.2111   -0.0003 C.ar    1  LIG1        0.2033
      4 N          -0.8313    1.0374    0.0006 N.ar    1  LIG1       -0.1339
      5 N           1.8576    1.1075    0.0004 N.ar    1  LIG1       -0.1258
      6 N          -0.2333    2.1900   -0.0002 N.ar    1  LIG1       -0.1258
      7 H          -0.5646   -1.0114    0.0019 H       1  LIG1        0.1085
      8 C           1.0290    4.7031   -0.0019 C.ar    1  LIG1       -0.0503
      9 C           1.6680    5.9333   -0.0028 C.ar    1  LIG1       -0.0504
     10 C           1.7844    3.5282   -0.0012 C.ar    1  LIG1        0.0227
     11 C           3.0652    6.0042   -0.0029 C.ar    1  LIG1        0.0173
     12 H           1.0792    6.8405   -0.0034 H       1  LIG1        0.0625
     13 C           3.1784    3.5912   -0.0013 C.ar    1  LIG1       -0.0503
     14 C           3.8154    4.8244   -0.0022 C.ar    1  LIG1       -0.0504
     15 H           3.7510    2.6739   -0.0008 H       1  LIG1        0.0625
     16 H          -0.0507    4.6415   -0.0018 H       1  LIG1        0.0625
     17 H           4.8950    4.8811   -0.0023 H       1  LIG1        0.0625
     18 C           3.7446    7.3079   -0.0038 C.ar    1  LIG1        0.1348
     19 C           3.3026    8.5962   -0.0045 C.ar    1  LIG1       -0.0159
     20 C           4.4763    9.4234   -0.0051 C.ar    1  LIG1       -0.0233
     21 C           5.5288    8.5698   -0.0050 C.ar    1  LIG1        0.0926
     22 O           5.0970    7.2941   -0.0041 O.2     1  LIG1       -0.4629
     23 H           6.5949    8.7132   -0.0053 H       1  LIG1        0.1029
     24 H           2.2779    8.9258   -0.0045 H       1  LIG1        0.0655
     25 H           4.5201   10.4984   -0.0057 H       1  LIG1        0.0649
@<TRIPOS>BOND
     1    25    20    1
     2    23    21    1
     3    20    21   ar
     4    20    19   ar
     5    21    22   ar
     6    19    24    1
     7    19    18   ar
     8    22    18   ar
     9    18    11    1
    10    12     9    1
    11    11     9   ar
    12    11    14   ar
    13     9     8   ar
    14    17    14    1
    15    14    13   ar
    16     8    16    1
    17     8    10   ar
    18    13    10   ar
    19    13    15    1
    20    10     3    1
    21     3     6   ar
    22     3     5   ar
    23     6     4   ar
    24     5     2   ar
    25     4     1   ar
    26     2     1   ar
    27     1     7    1
