@<TRIPOS>MOLECULE
mol_data/opt/m06hf/geoms/mol2/84-13-4.out
 36 39 0 0 0
SMALL
GASTEIGER

@<TRIPOS>ATOM
      1 C          -0.1932   -0.0846    0.3196 C.ar    1  LIG1        0.1605
      2 N           1.0870   -0.0992   -0.0405 N.ar    1  LIG1       -0.1339
      3 C           1.0113    2.1548    0.1403 C.ar    1  LIG1        0.2033
      4 N          -0.8896    1.0146    0.5957 N.ar    1  LIG1       -0.1339
      5 N           1.7004    1.0418   -0.1312 N.ar    1  LIG1       -0.1258
      6 N          -0.2752    2.1548    0.5034 N.ar    1  LIG1       -0.1258
      7 H          -0.7030   -1.0333    0.3952 H       1  LIG1        0.1085
      8 C           1.0187    4.6427    0.2991 C.ar    1  LIG1       -0.0503
      9 C           1.6731    5.8607    0.1967 C.ar    1  LIG1       -0.0520
     10 C           1.7085    3.4581    0.0299 C.ar    1  LIG1        0.0227
     11 C           3.0175    5.9166   -0.1887 C.ar    1  LIG1       -0.0017
     12 H           1.1531    6.7788    0.4348 H       1  LIG1        0.0624
     13 C           3.0511    3.5004   -0.3480 C.ar    1  LIG1       -0.0503
     14 C           3.6966    4.7236   -0.4635 C.ar    1  LIG1       -0.0520
     15 H           3.5697    2.5760   -0.5635 H       1  LIG1        0.0625
     16 H          -0.0200    4.5953    0.5973 H       1  LIG1        0.0625
     17 H           4.7250    4.7549   -0.8016 H       1  LIG1        0.0624
     18 C           3.6915    7.2191   -0.3106 C.ar    1  LIG1        0.0469
     19 C           3.1985    8.4523   -0.6875 C.ar    1  LIG1       -0.0358
     20 C           4.2771    9.3722   -0.6457 C.ar    1  LIG1       -0.0358
     21 C           5.3991    8.6768   -0.2421 C.ar    1  LIG1        0.0469
     22 N           5.0283    7.3735   -0.0595 N.ar    1  LIG1       -0.3542
     23 H           5.6104    6.6754    0.3780 H       1  LIG1        0.1659
     24 H           2.1879    8.6499   -1.0044 H       1  LIG1        0.0639
     25 H           4.2560   10.4130   -0.9224 H       1  LIG1        0.0639
     26 C           7.8696    8.2988   -0.3152 C.ar    1  LIG1       -0.0526
     27 C           9.1721    8.7383   -0.1017 C.ar    1  LIG1       -0.0611
     28 C           6.7854    9.1316   -0.0219 C.ar    1  LIG1       -0.0017
     29 C           9.4062   10.0193    0.3911 C.ar    1  LIG1       -0.0617
     30 H          10.0038    8.0862   -0.3349 H       1  LIG1        0.0618
     31 C           7.0267   10.4142    0.4787 C.ar    1  LIG1       -0.0526
     32 C           8.3295   10.8571    0.6753 C.ar    1  LIG1       -0.0611
     33 H           6.1867   11.0493    0.7290 H       1  LIG1        0.0624
     34 H          10.4190   10.3638    0.5514 H       1  LIG1        0.0618
     35 H           7.6928    7.3184   -0.7408 H       1  LIG1        0.0624
     36 H           8.5052   11.8520    1.0626 H       1  LIG1        0.0618
@<TRIPOS>BOND
     1    24    19    1
     2    25    20    1
     3    17    14    1
     4    35    26    1
     5    19    20   ar
     6    19    18   ar
     7    20    21   ar
     8    15    13    1
     9    14    13   ar
    10    14    11   ar
    11    13    10   ar
    12    30    27    1
    13    26    27   ar
    14    26    28   ar
    15    18    11    1
    16    18    22   ar
    17    21    22   ar
    18    21    28    1
    19    11     9   ar
    20     5     2   ar
    21     5     3   ar
    22    27    29   ar
    23    22    23    1
    24     2     1   ar
    25    28    31   ar
    26    10     3    1
    27    10     8   ar
    28     3     6   ar
    29     9     8   ar
    30     9    12    1
    31     8    16    1
    32     1     7    1
    33     1     4   ar
    34    29    34    1
    35    29    32   ar
    36    31    32   ar
    37    31    33    1
    38     6     4   ar
    39    32    36    1
