@<TRIPOS>MOLECULE
mol_data/opt/m06hf/geoms/mol2/84-12.out
 25 27 0 0 0
SMALL
GASTEIGER

@<TRIPOS>ATOM
      1 C          -0.0426   -0.0657    0.0013 C.ar    1  LIG1        0.1605
      2 N           1.2871   -0.0478    0.0011 N.ar    1  LIG1       -0.1339
      3 C           1.1094    2.2080   -0.0003 C.ar    1  LIG1        0.2033
      4 N          -0.8146    1.0175    0.0006 N.ar    1  LIG1       -0.1339
      5 N           1.8732    1.1110    0.0004 N.ar    1  LIG1       -0.1258
      6 N          -0.2271    2.1753   -0.0002 N.ar    1  LIG1       -0.1258
      7 H          -0.5314   -1.0284    0.0019 H       1  LIG1        0.1085
      8 C           1.0168    4.6984   -0.0019 C.ar    1  LIG1       -0.0503
      9 C           1.6455    5.9360   -0.0028 C.ar    1  LIG1       -0.0504
     10 C           1.7802    3.5303   -0.0012 C.ar    1  LIG1        0.0227
     11 C           3.0413    6.0165   -0.0029 C.ar    1  LIG1        0.0173
     12 H           1.0607    6.8452   -0.0033 H       1  LIG1        0.0625
     13 C           3.1752    3.6038   -0.0013 C.ar    1  LIG1       -0.0503
     14 C           3.8001    4.8412   -0.0022 C.ar    1  LIG1       -0.0504
     15 H           3.7560    2.6915   -0.0008 H       1  LIG1        0.0625
     16 H          -0.0622    4.6272   -0.0018 H       1  LIG1        0.0625
     17 H           4.8804    4.8934   -0.0023 H       1  LIG1        0.0625
     18 C           3.7023    7.3295   -0.0038 C.ar    1  LIG1        0.1348
     19 C           5.0061    7.7236   -0.0043 C.ar    1  LIG1       -0.0159
     20 C           4.9916    9.1594   -0.0053 C.ar    1  LIG1       -0.0233
     21 C           3.6839    9.5149   -0.0051 C.ar    1  LIG1        0.0926
     22 O           2.9010    8.4190   -0.0044 O.2     1  LIG1       -0.4629
     23 H           3.1774   10.4638   -0.0055 H       1  LIG1        0.1029
     24 H           5.8723    7.0846   -0.0041 H       1  LIG1        0.0655
     25 H           5.8384    9.8231   -0.0059 H       1  LIG1        0.0649
@<TRIPOS>BOND
     1    25    20    1
     2    23    21    1
     3    20    21   ar
     4    20    19   ar
     5    21    22   ar
     6    22    18   ar
     7    19    24    1
     8    19    18   ar
     9    18    11    1
    10    12     9    1
    11    11     9   ar
    12    11    14   ar
    13     9     8   ar
    14    17    14    1
    15    14    13   ar
    16     8    16    1
    17     8    10   ar
    18    13    10   ar
    19    13    15    1
    20    10     3    1
    21     3     6   ar
    22     3     5   ar
    23     6     4   ar
    24     5     2   ar
    25     4     1   ar
    26     2     1   ar
    27     1     7    1
