@<TRIPOS>MOLECULE
mol_data/opt/m06hf/geoms/mol2/84-13-.out
 26 28 0 0 0
SMALL
GASTEIGER

@<TRIPOS>ATOM
      1 C          -0.0729   -0.0695   -0.0024 C.ar    1  LIG1        0.1605
      2 N           1.2396   -0.0531    0.2126 N.ar    1  LIG1       -0.1339
      3 C           1.0975    2.1950   -0.0025 C.ar    1  LIG1        0.2033
      4 N          -0.8183    1.0106   -0.2187 N.ar    1  LIG1       -0.1339
      5 N           1.8353    1.1006    0.2116 N.ar    1  LIG1       -0.1258
      6 N          -0.2215    2.1638   -0.2180 N.ar    1  LIG1       -0.1258
      7 H          -0.5685   -1.0287   -0.0018 H       1  LIG1        0.1085
      8 C           1.0447    4.6772   -0.2366 C.ar    1  LIG1       -0.0503
      9 C           1.6859    5.9070   -0.2414 C.ar    1  LIG1       -0.0520
     10 C           1.7778    3.5120    0.0000 C.ar    1  LIG1        0.0227
     11 C           3.0606    5.9954    0.0062 C.ar    1  LIG1       -0.0017
     12 H           1.1289    6.8086   -0.4579 H       1  LIG1        0.0624
     13 C           3.1500    3.5862    0.2426 C.ar    1  LIG1       -0.0503
     14 C           3.7825    4.8218    0.2535 C.ar    1  LIG1       -0.0520
     15 H           3.7043    2.6779    0.4361 H       1  LIG1        0.0625
     16 H          -0.0174    4.6061   -0.4278 H       1  LIG1        0.0625
     17 H           4.8376    4.8770    0.4904 H       1  LIG1        0.0624
     18 C           3.7211    7.3116    0.0134 C.ar    1  LIG1        0.0465
     19 C           3.2508    8.5486    0.4030 C.ar    1  LIG1       -0.0364
     20 C           4.3078    9.4818    0.2260 C.ar    1  LIG1       -0.0438
     21 C           5.3842    8.7851   -0.2692 C.ar    1  LIG1        0.0022
     22 N           5.0210    7.4765   -0.3845 N.ar    1  LIG1       -0.3607
     23 H           5.5857    6.7511   -0.7959 H       1  LIG1        0.1653
     24 H           6.3683    9.1172   -0.5512 H       1  LIG1        0.0807
     25 H           2.2715    8.7436    0.8073 H       1  LIG1        0.0639
     26 H           4.2854   10.5357    0.4436 H       1  LIG1        0.0633
@<TRIPOS>BOND
     1    23    22    1
     2    24    21    1
     3    12     9    1
     4    16     8    1
     5    22    21   ar
     6    22    18   ar
     7    21    20   ar
     8     9     8   ar
     9     9    11   ar
    10     8    10   ar
    11     4     6   ar
    12     4     1   ar
    13     6     3   ar
    14     3    10    1
    15     3     5   ar
    16     1     7    1
    17     1     2   ar
    18    10    13   ar
    19    11    18    1
    20    11    14   ar
    21    18    19   ar
    22     5     2   ar
    23    20    19   ar
    24    20    26    1
    25    13    14   ar
    26    13    15    1
    27    14    17    1
    28    19    25    1
