@<TRIPOS>MOLECULE
mol_data/opt/m06hf/geoms/mol2/84-128.out
 31 34 0 0 0
SMALL
GASTEIGER

@<TRIPOS>ATOM
      1 C           0.0177   -0.1644    0.0013 C.ar    1  LIG1        0.1605
      2 N           1.3473   -0.1263    0.0013 N.ar    1  LIG1       -0.1339
      3 C           1.1328    2.1256   -0.0002 C.ar    1  LIG1        0.2033
      4 N          -0.7719    0.9058    0.0006 N.ar    1  LIG1       -0.1339
      5 N           1.9147    1.0426    0.0005 N.ar    1  LIG1       -0.1258
      6 N          -0.2028    2.0733   -0.0002 N.ar    1  LIG1       -0.1258
      7 H          -0.4555   -1.1351    0.0020 H       1  LIG1        0.1085
      8 C           0.9968    4.6136   -0.0020 C.ar    1  LIG1       -0.0503
      9 C           1.6026    5.8621   -0.0028 C.ar    1  LIG1       -0.0504
     10 C           1.7811    3.4598   -0.0012 C.ar    1  LIG1        0.0227
     11 C           2.9972    5.9619   -0.0029 C.ar    1  LIG1        0.0173
     12 H           1.0035    6.7630   -0.0035 H       1  LIG1        0.0625
     13 C           3.1748    3.5549   -0.0012 C.ar    1  LIG1       -0.0503
     14 C           3.7785    4.8027   -0.0021 C.ar    1  LIG1       -0.0504
     15 H           3.7687    2.6508   -0.0006 H       1  LIG1        0.0625
     16 H          -0.0811    4.5216   -0.0019 H       1  LIG1        0.0625
     17 H           4.8582    4.8743   -0.0021 H       1  LIG1        0.0625
     18 C           3.6325    7.2868   -0.0039 C.ar    1  LIG1        0.1358
     19 C           4.9340    7.7073   -0.0042 C.ar    1  LIG1       -0.0151
     20 C           4.8924    9.1349   -0.0053 C.ar    1  LIG1       -0.0120
     21 C           3.5704    9.4619   -0.0054 C.ar    1  LIG1        0.1760
     22 O           2.8101    8.3528   -0.0045 O.2     1  LIG1       -0.4516
     23 H           5.8124    7.0861   -0.0039 H       1  LIG1        0.0656
     24 H           5.7139    9.8306   -0.0058 H       1  LIG1        0.0657
     25 C           2.8947   10.7576   -0.0062 C.ar    1  LIG1        0.2381
     26 N           3.6790   11.8409   -0.0071 N.ar    1  LIG1       -0.1226
     27 C           1.7686   13.0281   -0.0081 C.ar    1  LIG1        0.1605
     28 N           1.5610   10.7850   -0.0062 N.ar    1  LIG1       -0.1226
     29 N           3.1015   13.0016   -0.0080 N.ar    1  LIG1       -0.1338
     30 N           0.9876   11.9533   -0.0071 N.ar    1  LIG1       -0.1338
     31 H           1.2898   13.9956   -0.0086 H       1  LIG1        0.1085
@<TRIPOS>BOND
     1    31    27    1
     2    27    29   ar
     3    27    30   ar
     4    29    26   ar
     5    26    25   ar
     6    30    28   ar
     7    28    25   ar
     8    25    21    1
     9    24    20    1
    10    21    20   ar
    11    21    22   ar
    12    20    19   ar
    13    22    18   ar
    14    19    23    1
    15    19    18   ar
    16    18    11    1
    17    12     9    1
    18    11     9   ar
    19    11    14   ar
    20     9     8   ar
    21    17    14    1
    22    14    13   ar
    23     8    16    1
    24     8    10   ar
    25    13    10   ar
    26    13    15    1
    27    10     3    1
    28     3     6   ar
    29     3     5   ar
    30     6     4   ar
    31     5     2   ar
    32     4     1   ar
    33     2     1   ar
    34     1     7    1
