@<TRIPOS>MOLECULE
mol_data/opt/m06hf/geoms/mol2/84-4-8.out
 34 37 0 0 0
SMALL
GASTEIGER

@<TRIPOS>ATOM
      1 C          -0.1187   -0.1257   -0.0029 C.ar    1  LIG1        0.1605
      2 N           1.1297   -0.0795    0.4536 N.ar    1  LIG1       -0.1339
      3 C           1.0568    2.1343   -0.0037 C.ar    1  LIG1        0.2033
      4 N          -0.7978    0.9227   -0.4597 N.ar    1  LIG1       -0.1339
      5 N           1.7282    1.0730    0.4524 N.ar    1  LIG1       -0.1258
      6 N          -0.1978    2.0744   -0.4594 N.ar    1  LIG1       -0.1258
      7 H          -0.6169   -1.0836   -0.0025 H       1  LIG1        0.1085
      8 C           1.0721    4.5819   -0.4735 C.ar    1  LIG1       -0.0504
      9 C           1.7160    5.8122   -0.4713 C.ar    1  LIG1       -0.0534
     10 C           1.7417    3.4511   -0.0042 C.ar    1  LIG1        0.0227
     11 C           3.0292    5.9264   -0.0051 C.ar    1  LIG1       -0.0178
     12 H           1.2077    6.6877   -0.8550 H       1  LIG1        0.0624
     13 C           3.0522    3.5523    0.4647 C.ar    1  LIG1       -0.0504
     14 C           3.6898    4.7859    0.4617 C.ar    1  LIG1       -0.0534
     15 H           3.5546    2.6677    0.8321 H       1  LIG1        0.0625
     16 H           0.0592    4.4852   -0.8405 H       1  LIG1        0.0625
     17 H           4.6986    4.8726    0.8450 H       1  LIG1        0.0624
     18 C           3.0571    8.3905    0.4607 C.ar    1  LIG1       -0.0534
     19 C           3.6946    9.6241    0.4628 C.ar    1  LIG1       -0.0504
     20 C           3.7175    7.2498   -0.0055 C.ar    1  LIG1       -0.0178
     21 C           5.0050    9.7250   -0.0064 C.ar    1  LIG1        0.0227
     22 H           3.1923   10.5090    0.8298 H       1  LIG1        0.0625
     23 C           5.0306    7.3637   -0.4721 C.ar    1  LIG1       -0.0534
     24 C           5.6746    8.5939   -0.4752 C.ar    1  LIG1       -0.0504
     25 H           5.5388    6.4879   -0.8553 H       1  LIG1        0.0624
     26 H           2.0483    8.3040    0.8442 H       1  LIG1        0.0624
     27 H           6.6874    8.6905   -0.8425 H       1  LIG1        0.0625
     28 C           5.6899   11.0418   -0.0068 C.ar    1  LIG1        0.2033
     29 N           6.9444   11.1015   -0.4627 N.ar    1  LIG1       -0.1258
     30 C           6.8655   13.3018   -0.0073 C.ar    1  LIG1        0.1605
     31 N           5.0187   12.1034    0.4488 N.ar    1  LIG1       -0.1258
     32 N           7.5445   12.2532   -0.4638 N.ar    1  LIG1       -0.1339
     33 N           5.6172   13.2559    0.4492 N.ar    1  LIG1       -0.1339
     34 H           7.3637   14.2597   -0.0078 H       1  LIG1        0.1085
@<TRIPOS>BOND
     1    25    23    1
     2    12     9    1
     3    27    24    1
     4    16     8    1
     5    24    23   ar
     6    24    21   ar
     7     8     9   ar
     8     8    10   ar
     9    23    20   ar
    10     9    11   ar
    11    32    29   ar
    12    32    30   ar
    13    29    28   ar
    14     4     6   ar
    15     4     1   ar
    16     6     3   ar
    17    34    30    1
    18    30    33   ar
    19    28    21    1
    20    28    31   ar
    21    21    19   ar
    22    20    11    1
    23    20    18   ar
    24    11    14   ar
    25    10     3    1
    26    10    13   ar
    27     3     5   ar
    28     1     7    1
    29     1     2   ar
    30    31    33   ar
    31     5     2   ar
    32    18    19   ar
    33    18    26    1
    34    14    13   ar
    35    14    17    1
    36    19    22    1
    37    13    15    1
