@<TRIPOS>MOLECULE
mol_data/opt/m06hf/geoms/mol2/84-4-.out
 28 30 0 0 0
SMALL
GASTEIGER

@<TRIPOS>ATOM
      1 C          -0.0872   -0.0856    0.0064 C.ar    1  LIG1        0.1605
      2 N           1.1838   -0.0479    0.3962 N.ar    1  LIG1       -0.1339
      3 C           1.0836    2.1777    0.0024 C.ar    1  LIG1        0.2033
      4 N          -0.7913    0.9724   -0.3855 N.ar    1  LIG1       -0.1339
      5 N           1.7797    1.1058    0.3935 N.ar    1  LIG1       -0.1258
      6 N          -0.1941    2.1254   -0.3867 N.ar    1  LIG1       -0.1258
      7 H          -0.5832   -1.0447    0.0080 H       1  LIG1        0.1085
      8 C           1.0689    4.6381   -0.3969 C.ar    1  LIG1       -0.0504
      9 C           1.7114    5.8690   -0.3989 C.ar    1  LIG1       -0.0534
     10 C           1.7652    3.4955    0.0001 C.ar    1  LIG1        0.0227
     11 C           3.0490    5.9775   -0.0042 C.ar    1  LIG1       -0.0178
     12 H           1.1808    6.7516   -0.7321 H       1  LIG1        0.0624
     13 C           3.1006    3.5886    0.3950 C.ar    1  LIG1       -0.0504
     14 C           3.7340    4.8243    0.3927 C.ar    1  LIG1       -0.0534
     15 H           3.6256    2.6962    0.7074 H       1  LIG1        0.0625
     16 H           0.0368    4.5500   -0.7076 H       1  LIG1        0.0625
     17 H           4.7614    4.9021    0.7242 H       1  LIG1        0.0624
     18 C           3.0790    8.4405    0.4724 C.ar    1  LIG1       -0.0540
     19 C           3.7181    9.6761    0.4695 C.ar    1  LIG1       -0.0612
     20 C           3.7346    7.3029   -0.0065 C.ar    1  LIG1       -0.0179
     21 C           5.0203    9.7886   -0.0109 C.ar    1  LIG1       -0.0617
     22 H           3.2019   10.5479    0.8499 H       1  LIG1        0.0618
     23 C           5.0411    7.4239   -0.4876 C.ar    1  LIG1       -0.0540
     24 C           5.6803    8.6595   -0.4890 C.ar    1  LIG1       -0.0612
     25 H           5.5461    6.5516   -0.8843 H       1  LIG1        0.0624
     26 H           5.5175   10.7498   -0.0125 H       1  LIG1        0.0618
     27 H           2.0758    8.3496    0.8707 H       1  LIG1        0.0624
     28 H           6.6895    8.7410   -0.8711 H       1  LIG1        0.0618
@<TRIPOS>BOND
     1    25    23    1
     2    28    24    1
     3    12     9    1
     4    16     8    1
     5    24    23   ar
     6    24    21   ar
     7    23    20   ar
     8     9     8   ar
     9     9    11   ar
    10     8    10   ar
    11     6     4   ar
    12     6     3   ar
    13     4     1   ar
    14    26    21    1
    15    21    19   ar
    16    20    11    1
    17    20    18   ar
    18    11    14   ar
    19    10     3    1
    20    10    13   ar
    21     3     5   ar
    22     1     7    1
    23     1     2   ar
    24    14    13   ar
    25    14    17    1
    26     5     2   ar
    27    13    15    1
    28    19    18   ar
    29    19    22    1
    30    18    27    1
