@<TRIPOS>MOLECULE
mol_data/opt/m06hf/geoms/mol2/84-4-12.out
 35 38 0 0 0
SMALL
GASTEIGER

@<TRIPOS>ATOM
      1 C          -0.1147   -0.1415    0.0087 C.ar    1  LIG1        0.1605
      2 N           1.1228   -0.0861    0.4927 N.ar    1  LIG1       -0.1339
      3 C           1.0567    2.1216    0.0024 C.ar    1  LIG1        0.2033
      4 N          -0.7847    0.8986   -0.4791 N.ar    1  LIG1       -0.1339
      5 N           1.7191    1.0674    0.4887 N.ar    1  LIG1       -0.1258
      6 N          -0.1872    2.0516   -0.4815 N.ar    1  LIG1       -0.1258
      7 H          -0.6116   -1.1002    0.0120 H       1  LIG1        0.1085
      8 C           1.0791    4.5623   -0.5016 C.ar    1  LIG1       -0.0504
      9 C           1.7210    5.7936   -0.5015 C.ar    1  LIG1       -0.0534
     10 C           1.7385    3.4392    0.0001 C.ar    1  LIG1        0.0227
     11 C           3.0219    5.9195   -0.0034 C.ar    1  LIG1       -0.0178
     12 H           1.2218    6.6621   -0.9120 H       1  LIG1        0.0624
     13 C           3.0368    3.5507    0.5001 C.ar    1  LIG1       -0.0504
     14 C           3.6710    4.7859    0.4968 C.ar    1  LIG1       -0.0534
     15 H           3.5318    2.6729    0.8931 H       1  LIG1        0.0625
     16 H           0.0760    4.4581   -0.8928 H       1  LIG1        0.0625
     17 H           4.6685    4.8809    0.9065 H       1  LIG1        0.0624
     18 C           3.0348    8.3942    0.4136 C.ar    1  LIG1       -0.0534
     19 C           3.6720    9.6286    0.4138 C.ar    1  LIG1       -0.0505
     20 C           3.7073    7.2437   -0.0050 C.ar    1  LIG1       -0.0178
     21 C           4.9990    9.7348   -0.0095 C.ar    1  LIG1        0.0173
     22 H           3.1493   10.5148    0.7474 H       1  LIG1        0.0625
     23 C           5.0360    7.3555   -0.4259 C.ar    1  LIG1       -0.0534
     24 C           5.6757    8.5869   -0.4304 C.ar    1  LIG1       -0.0505
     25 H           5.5609    6.4748   -0.7749 H       1  LIG1        0.0624
     26 H           2.0129    8.3169    0.7638 H       1  LIG1        0.0624
     27 H           6.7007    8.6557   -0.7703 H       1  LIG1        0.0625
     28 C           5.6700   11.0439   -0.0116 C.ar    1  LIG1        0.1348
     29 C           6.9246   11.4551   -0.3446 C.ar    1  LIG1       -0.0159
     30 C           6.9529   12.8752   -0.1274 C.ar    1  LIG1       -0.0233
     31 C           5.7172   13.2047    0.3190 C.ar    1  LIG1        0.0926
     32 O           4.9380   12.1072    0.3917 O.2     1  LIG1       -0.4629
     33 H           5.2620   14.1335    0.6133 H       1  LIG1        0.1029
     34 H           7.7322   10.8385   -0.6997 H       1  LIG1        0.0655
     35 H           7.7803   13.5454   -0.2841 H       1  LIG1        0.0649
@<TRIPOS>BOND
     1    12     9    1
     2    16     8    1
     3    25    23    1
     4    27    24    1
     5    34    29    1
     6     8     9   ar
     7     8    10   ar
     8     9    11   ar
     9     6     4   ar
    10     6     3   ar
    11     4     1   ar
    12    24    23   ar
    13    24    21   ar
    14    23    20   ar
    15    29    30   ar
    16    29    28   ar
    17    35    30    1
    18    30    31   ar
    19    28    21    1
    20    28    32   ar
    21    21    19   ar
    22    20    11    1
    23    20    18   ar
    24    11    14   ar
    25    10     3    1
    26    10    13   ar
    27     3     5   ar
    28     1     7    1
    29     1     2   ar
    30    31    32   ar
    31    31    33    1
    32    18    19   ar
    33    18    26    1
    34    19    22    1
    35     5     2   ar
    36    14    13   ar
    37    14    17    1
    38    13    15    1
