@<TRIPOS>MOLECULE
mol_data/opt/m06hf/geoms/mol2/84-512-.out
 32 35 0 0 0
SMALL
GASTEIGER

@<TRIPOS>ATOM
      1 C          -0.0962   -0.1212   -0.1437 C.ar    1  LIG1        0.1605
      2 N           1.1832   -0.0800   -0.5040 N.ar    1  LIG1       -0.1339
      3 C           1.0870    2.1335   -0.0477 C.ar    1  LIG1        0.2033
      4 N          -0.8022    0.9291    0.2667 N.ar    1  LIG1       -0.1339
      5 N           1.7859    1.0697   -0.4547 N.ar    1  LIG1       -0.1258
      6 N          -0.1983    2.0775    0.3146 N.ar    1  LIG1       -0.1258
      7 H          -0.5989   -1.0757   -0.1869 H       1  LIG1        0.1085
      8 C           1.0720    4.5797    0.4243 C.ar    1  LIG1       -0.0503
      9 C           1.7134    5.8093    0.4703 C.ar    1  LIG1       -0.0529
     10 C           1.7720    3.4481    0.0032 C.ar    1  LIG1        0.0227
     11 C           3.0548    5.9261    0.0901 C.ar    1  LIG1       -0.0113
     12 H           1.1775    6.6814    0.8230 H       1  LIG1        0.0624
     13 C           3.1117    3.5520   -0.3755 C.ar    1  LIG1       -0.0503
     14 C           3.7445    4.7864   -0.3394 C.ar    1  LIG1       -0.0529
     15 H           3.6388    2.6683   -0.7086 H       1  LIG1        0.0625
     16 H           0.0359    4.4844    0.7193 H       1  LIG1        0.0625
     17 H           4.7716    4.8782   -0.6668 H       1  LIG1        0.0624
     18 C           3.7458    7.2316    0.1381 C.ar    1  LIG1        0.0200
     19 C           5.0477    7.4834    0.4638 C.ar    1  LIG1       -0.0462
     20 C           5.3782    8.8730    0.4114 C.ar    1  LIG1       -0.0434
     21 C           4.3151    9.6473    0.0451 C.ar    1  LIG1        0.0550
     22 S           2.9057    8.6960   -0.2499 S.2     1  LIG1       -0.0852
     23 H           5.7392    6.7092    0.7631 H       1  LIG1        0.0629
     24 H           6.3486    9.2857    0.6427 H       1  LIG1        0.0630
     25 C           4.2895   11.0979   -0.1020 C.ar    1  LIG1        0.1413
     26 C           3.3165   11.9868   -0.4416 C.ar    1  LIG1       -0.0154
     27 C           3.9347   13.2835   -0.3995 C.ar    1  LIG1       -0.0233
     28 C           5.2226   13.0683   -0.0393 C.ar    1  LIG1        0.0926
     29 O           5.4470   11.7501    0.1423 O.2     1  LIG1       -0.4624
     30 H           6.0611   13.7217    0.1225 H       1  LIG1        0.1029
     31 H           2.2939   11.7552   -0.6884 H       1  LIG1        0.0655
     32 H           3.4761   14.2341   -0.6097 H       1  LIG1        0.0649
@<TRIPOS>BOND
     1    15    13    1
     2    31    26    1
     3    17    14    1
     4    32    27    1
     5     2     5   ar
     6     2     1   ar
     7     5     3   ar
     8    26    27   ar
     9    26    25   ar
    10    27    28   ar
    11    13    14   ar
    12    13    10   ar
    13    14    11   ar
    14    22    21   ar
    15    22    18   ar
    16     7     1    1
    17     1     4   ar
    18    25    21    1
    19    25    29   ar
    20     3    10    1
    21     3     6   ar
    22    28    30    1
    23    28    29   ar
    24    10     8   ar
    25    21    20   ar
    26    11    18    1
    27    11     9   ar
    28    18    19   ar
    29     4     6   ar
    30    20    19   ar
    31    20    24    1
    32     8     9   ar
    33     8    16    1
    34    19    23    1
    35     9    12    1
