@<TRIPOS>MOLECULE
mol_data/opt/m06hf/geoms/mol2/84-55-.out
 32 35 0 0 0
SMALL
GASTEIGER

@<TRIPOS>ATOM
      1 C          -0.0527   -0.1634    0.2246 C.ar    1  LIG1        0.1605
      2 N           1.2438   -0.1146    0.5168 N.ar    1  LIG1       -0.1339
      3 C           1.1051    2.1024    0.0885 C.ar    1  LIG1        0.2033
      4 N          -0.7886    0.8847   -0.1363 N.ar    1  LIG1       -0.1339
      5 N           1.8338    1.0405    0.4468 N.ar    1  LIG1       -0.1258
      6 N          -0.1972    2.0389   -0.2052 N.ar    1  LIG1       -0.1258
      7 H          -0.5447   -1.1227    0.2855 H       1  LIG1        0.1085
      8 C           1.0433    4.5541   -0.3497 C.ar    1  LIG1       -0.0503
      9 C           1.6709    5.7898   -0.4153 C.ar    1  LIG1       -0.0529
     10 C           1.7758    3.4231    0.0142 C.ar    1  LIG1        0.0227
     11 C           3.0313    5.9128   -0.1123 C.ar    1  LIG1       -0.0113
     12 H           1.1087    6.6626   -0.7222 H       1  LIG1        0.0624
     13 C           3.1342    3.5337    0.3171 C.ar    1  LIG1       -0.0503
     14 C           3.7542    4.7736    0.2601 C.ar    1  LIG1       -0.0529
     15 H           3.6863    2.6501    0.6076 H       1  LIG1        0.0625
     16 H          -0.0075    4.4533   -0.5845 H       1  LIG1        0.0625
     17 H           4.7981    4.8707    0.5272 H       1  LIG1        0.0624
     18 C           3.7074    7.2256   -0.1816 C.ar    1  LIG1        0.0199
     19 C           4.9793    7.4942   -0.6016 C.ar    1  LIG1       -0.0463
     20 C           5.3010    8.8858   -0.5501 C.ar    1  LIG1       -0.0458
     21 C           4.2672    9.6502   -0.0880 C.ar    1  LIG1        0.0265
     22 S           2.8957    8.6717    0.3088 S.2     1  LIG1       -0.0877
     23 H           5.6491    6.7326   -0.9735 H       1  LIG1        0.0629
     24 H           6.2444    9.3037   -0.8713 H       1  LIG1        0.0629
     25 C           4.2183   11.1029    0.1029 C.ar    1  LIG1        0.0259
     26 C           3.1456   11.9361   -0.0421 C.ar    1  LIG1       -0.0464
     27 C           3.4686   13.3042    0.2309 C.ar    1  LIG1       -0.0541
     28 C           4.7750   13.4702    0.5717 C.ar    1  LIG1       -0.0237
     29 S           5.6294   11.9778    0.5865 S.2     1  LIG1       -0.0961
     30 H           5.2854   14.3866    0.8196 H       1  LIG1        0.0693
     31 H           2.1706   11.5912   -0.3546 H       1  LIG1        0.0629
     32 H           2.7599   14.1157    0.1650 H       1  LIG1        0.0623
@<TRIPOS>BOND
     1    23    19    1
     2    24    20    1
     3    12     9    1
     4    19    20   ar
     5    19    18   ar
     6    16     8    1
     7    20    21   ar
     8     9     8   ar
     9     9    11   ar
    10    31    26    1
    11     8    10   ar
    12     6     4   ar
    13     6     3   ar
    14    18    11    1
    15    18    22   ar
    16     4     1   ar
    17    11    14   ar
    18    21    25    1
    19    21    22   ar
    20    26    25   ar
    21    26    27   ar
    22    10     3    1
    23    10    13   ar
    24     3     5   ar
    25    25    29   ar
    26    32    27    1
    27     1     7    1
    28     1     2   ar
    29    27    28   ar
    30    14    13   ar
    31    14    17    1
    32    13    15    1
    33     5     2   ar
    34    28    29   ar
    35    28    30    1
