@<TRIPOS>MOLECULE
mol_data/opt/m06hf/geoms/mol2/84-5-.out
 25 27 0 0 0
SMALL
GASTEIGER

@<TRIPOS>ATOM
      1 C          -0.0470   -0.0885    0.0012 C.ar    1  LIG1        0.1605
      2 N           1.2830   -0.0671    0.0013 N.ar    1  LIG1       -0.1339
      3 C           1.0986    2.1875   -0.0003 C.ar    1  LIG1        0.2033
      4 N          -0.8222    0.9920    0.0004 N.ar    1  LIG1       -0.1339
      5 N           1.8660    1.0932    0.0005 N.ar    1  LIG1       -0.1258
      6 N          -0.2376    2.1516   -0.0004 N.ar    1  LIG1       -0.1258
      7 H          -0.5315   -1.0535    0.0019 H       1  LIG1        0.1085
      8 C           0.9983    4.6793   -0.0026 C.ar    1  LIG1       -0.0503
      9 C           1.6239    5.9162   -0.0035 C.ar    1  LIG1       -0.0529
     10 C           1.7640    3.5120   -0.0012 C.ar    1  LIG1        0.0227
     11 C           3.0215    6.0154   -0.0029 C.ar    1  LIG1       -0.0113
     12 H           1.0165    6.8101   -0.0048 H       1  LIG1        0.0624
     13 C           3.1563    3.5941   -0.0007 C.ar    1  LIG1       -0.0503
     14 C           3.7752    4.8363   -0.0015 C.ar    1  LIG1       -0.0529
     15 H           3.7422    2.6852    0.0003 H       1  LIG1        0.0625
     16 H          -0.0809    4.6081   -0.0030 H       1  LIG1        0.0625
     17 H           4.8571    4.8809   -0.0009 H       1  LIG1        0.0624
     18 C           3.6764    7.3431   -0.0037 C.ar    1  LIG1        0.0193
     19 C           3.0893    8.5772   -0.0027 C.ar    1  LIG1       -0.0469
     20 C           4.0340    9.6522   -0.0041 C.ar    1  LIG1       -0.0541
     21 C           5.3199    9.2103   -0.0061 C.ar    1  LIG1       -0.0237
     22 S           5.4039    7.4938   -0.0063 S.2     1  LIG1       -0.0967
     23 H           6.2250    9.7951   -0.0075 H       1  LIG1        0.0693
     24 H           2.0212    8.7331   -0.0009 H       1  LIG1        0.0629
     25 H           3.7590   10.6961   -0.0036 H       1  LIG1        0.0623
@<TRIPOS>BOND
     1    23    21    1
     2    22    21   ar
     3    22    18   ar
     4    21    20   ar
     5    12     9    1
     6    20    25    1
     7    20    19   ar
     8    18    11    1
     9    18    19   ar
    10     9    11   ar
    11     9     8   ar
    12    16     8    1
    13    11    14   ar
    14    19    24    1
    15     8    10   ar
    16    14    17    1
    17    14    13   ar
    18    10    13   ar
    19    10     3    1
    20    13    15    1
    21     6     3   ar
    22     6     4   ar
    23     3     5   ar
    24     4     1   ar
    25     5     2   ar
    26     1     2   ar
    27     1     7    1
