@<TRIPOS>MOLECULE
mol_data/opt/m06hf/geoms/mol2/84-5.out
 25 27 0 0 0
SMALL
GASTEIGER

@<TRIPOS>ATOM
      1 C          -0.0845   -0.0693    0.0014 C.ar    1  LIG1        0.1605
      2 N           1.2452   -0.0670    0.0015 N.ar    1  LIG1       -0.1339
      3 C           1.0931    2.1903   -0.0002 C.ar    1  LIG1        0.2033
      4 N          -0.8443    1.0225    0.0005 N.ar    1  LIG1       -0.1339
      5 N           1.8447    1.0851    0.0007 N.ar    1  LIG1       -0.1258
      6 N          -0.2435    2.1737   -0.0003 N.ar    1  LIG1       -0.1258
      7 H          -0.5846   -1.0263    0.0021 H       1  LIG1        0.1085
      8 C           1.0322    4.6821   -0.0028 C.ar    1  LIG1       -0.0503
      9 C           1.6785    5.9102   -0.0038 C.ar    1  LIG1       -0.0529
     10 C           1.7791    3.5043   -0.0011 C.ar    1  LIG1        0.0227
     11 C           3.0758    5.9875   -0.0029 C.ar    1  LIG1       -0.0113
     12 H           1.0825    6.8142   -0.0054 H       1  LIG1        0.0624
     13 C           3.1737    3.5650   -0.0003 C.ar    1  LIG1       -0.0503
     14 C           3.8120    4.7954   -0.0010 C.ar    1  LIG1       -0.0529
     15 H           3.7466    2.6476    0.0011 H       1  LIG1        0.0625
     16 H          -0.0478    4.6265   -0.0034 H       1  LIG1        0.0625
     17 H           4.8923    4.8248    0.0001 H       1  LIG1        0.0624
     18 C           3.7706    7.2948   -0.0039 C.ar    1  LIG1        0.0193
     19 C           5.1151    7.5396   -0.0069 C.ar    1  LIG1       -0.0469
     20 C           5.4355    8.9343   -0.0069 C.ar    1  LIG1       -0.0541
     21 C           4.3255    9.7196   -0.0040 C.ar    1  LIG1       -0.0237
     22 S           2.8835    8.7848   -0.0014 S.2     1  LIG1       -0.0967
     23 H           4.2713   10.7958   -0.0033 H       1  LIG1        0.0693
     24 H           5.8658    6.7638   -0.0092 H       1  LIG1        0.0629
     25 H           6.4433    9.3211   -0.0090 H       1  LIG1        0.0623
@<TRIPOS>BOND
     1    24    19    1
     2    25    20    1
     3    20    19   ar
     4    20    21   ar
     5    19    18   ar
     6    12     9    1
     7    21    23    1
     8    21    22   ar
     9    18    11    1
    10    18    22   ar
    11     9    11   ar
    12     9     8   ar
    13    16     8    1
    14    11    14   ar
    15     8    10   ar
    16    10    13   ar
    17    10     3    1
    18    14    13   ar
    19    14    17    1
    20     6     3   ar
    21     6     4   ar
    22    13    15    1
    23     3     5   ar
    24     4     1   ar
    25     5     2   ar
    26     1     2   ar
    27     1     7    1
