@<TRIPOS>MOLECULE
mol_data/opt/m06hf/geoms/mol2/84-513-.out
 33 36 0 0 0
SMALL
GASTEIGER

@<TRIPOS>ATOM
      1 C          -0.0461   -0.1605    0.2686 C.ar    1  LIG1        0.1605
      2 N           1.2590   -0.1126    0.5190 N.ar    1  LIG1       -0.1339
      3 C           1.1049    2.1078    0.1128 C.ar    1  LIG1        0.2033
      4 N          -0.7942    0.8899   -0.0591 N.ar    1  LIG1       -0.1339
      5 N           1.8455    1.0437    0.4390 N.ar    1  LIG1       -0.1258
      6 N          -0.2065    2.0451   -0.1381 N.ar    1  LIG1       -0.1258
      7 H          -0.5350   -1.1208    0.3374 H       1  LIG1        0.1085
      8 C           1.0297    4.5628   -0.3076 C.ar    1  LIG1       -0.0503
      9 C           1.6561    5.7983   -0.3887 C.ar    1  LIG1       -0.0529
     10 C           1.7727    3.4289    0.0246 C.ar    1  LIG1        0.0227
     11 C           3.0264    5.9186   -0.1328 C.ar    1  LIG1       -0.0113
     12 H           1.0845    6.6733   -0.6712 H       1  LIG1        0.0624
     13 C           3.1406    3.5367    0.2818 C.ar    1  LIG1       -0.0503
     14 C           3.7595    4.7764    0.2101 C.ar    1  LIG1       -0.0529
     15 H           3.7013    2.6510    0.5486 H       1  LIG1        0.0625
     16 H          -0.0288    4.4646   -0.5069 H       1  LIG1        0.0625
     17 H           4.8120    4.8708    0.4422 H       1  LIG1        0.0624
     18 C           3.7039    7.2291   -0.2219 C.ar    1  LIG1        0.0200
     19 C           4.9643    7.4896   -0.6798 C.ar    1  LIG1       -0.0463
     20 C           5.2921    8.8808   -0.6468 C.ar    1  LIG1       -0.0449
     21 C           4.2762    9.6518   -0.1549 C.ar    1  LIG1        0.0360
     22 S           2.9145    8.6827    0.2860 S.2     1  LIG1       -0.0868
     23 H           5.6179    6.7235   -1.0711 H       1  LIG1        0.0629
     24 H           6.2205    9.2937   -1.0151 H       1  LIG1        0.0630
     25 C           4.2537   11.1023    0.0409 C.ar    1  LIG1        0.0531
     26 C           3.2496   12.0310   -0.1328 C.ar    1  LIG1       -0.0359
     27 C           3.7924   13.3039    0.1933 C.ar    1  LIG1       -0.0438
     28 C           5.1037   13.1064    0.5559 C.ar    1  LIG1        0.0022
     29 N           5.3707   11.7737    0.4574 N.ar    1  LIG1       -0.3603
     30 H           6.2282   11.3208    0.7298 H       1  LIG1        0.1653
     31 H           5.8575   13.8040    0.8767 H       1  LIG1        0.0807
     32 H           2.2544   11.8152   -0.4845 H       1  LIG1        0.0639
     33 H           3.2836   14.2519    0.1589 H       1  LIG1        0.0633
@<TRIPOS>BOND
     1    23    19    1
     2    24    20    1
     3    19    20   ar
     4    19    18   ar
     5    12     9    1
     6    20    21   ar
     7    16     8    1
     8    32    26    1
     9     9     8   ar
    10     9    11   ar
    11     8    10   ar
    12    18    11    1
    13    18    22   ar
    14    21    25    1
    15    21    22   ar
    16     6     4   ar
    17     6     3   ar
    18    26    25   ar
    19    26    27   ar
    20    11    14   ar
    21     4     1   ar
    22    10     3    1
    23    10    13   ar
    24    25    29   ar
    25     3     5   ar
    26    33    27    1
    27    27    28   ar
    28    14    13   ar
    29    14    17    1
    30     1     7    1
    31     1     2   ar
    32    13    15    1
    33     5     2   ar
    34    29    28   ar
    35    29    30    1
    36    28    31    1
