@<TRIPOS>MOLECULE
mol_data/opt/m06hf/geoms/mol2/84-8-.out
 24 26 0 0 0
SMALL
GASTEIGER

@<TRIPOS>ATOM
      1 C          -0.0513   -0.0506    0.0013 C.ar    1  LIG1        0.1605
      2 N           1.2787   -0.0390    0.0012 N.ar    1  LIG1       -0.1339
      3 C           1.1093    2.2154   -0.0003 C.ar    1  LIG1        0.2033
      4 N          -0.8191    1.0354    0.0007 N.ar    1  LIG1       -0.1339
      5 N           1.8694    1.1175    0.0004 N.ar    1  LIG1       -0.1258
      6 N          -0.2258    2.1906   -0.0001 N.ar    1  LIG1       -0.1258
      7 H          -0.5435   -1.0117    0.0020 H       1  LIG1        0.1085
      8 C           1.0235    4.7069   -0.0019 C.ar    1  LIG1       -0.0503
      9 C           1.6562    5.9424   -0.0028 C.ar    1  LIG1       -0.0503
     10 C           1.7867    3.5381   -0.0012 C.ar    1  LIG1        0.0227
     11 C           3.0508    6.0061   -0.0030 C.ar    1  LIG1        0.0227
     12 H           1.0808    6.8577   -0.0034 H       1  LIG1        0.0625
     13 C           3.1813    3.6017   -0.0014 C.ar    1  LIG1       -0.0503
     14 C           3.8140    4.8372   -0.0023 C.ar    1  LIG1       -0.0503
     15 H           3.7567    2.6864   -0.0008 H       1  LIG1        0.0625
     16 H          -0.0556    4.6390   -0.0018 H       1  LIG1        0.0625
     17 H           4.8931    4.9052   -0.0024 H       1  LIG1        0.0625
     18 C           3.7282    7.3287   -0.0039 C.ar    1  LIG1        0.2033
     19 N           2.9681    8.4267   -0.0045 N.ar    1  LIG1       -0.1258
     20 C           4.8888    9.5948   -0.0052 C.ar    1  LIG1        0.1605
     21 N           5.0633    7.3535   -0.0040 N.ar    1  LIG1       -0.1258
     22 N           3.5588    9.5831   -0.0052 N.ar    1  LIG1       -0.1339
     23 N           5.6565    8.5087   -0.0047 N.ar    1  LIG1       -0.1339
     24 H           5.3810   10.5558   -0.0060 H       1  LIG1        0.1085
@<TRIPOS>BOND
     1    24    20    1
     2    22    20   ar
     3    22    19   ar
     4    20    23   ar
     5    23    21   ar
     6    19    18   ar
     7    21    18   ar
     8    18    11    1
     9    12     9    1
    10    11     9   ar
    11    11    14   ar
    12     9     8   ar
    13    17    14    1
    14    14    13   ar
    15     8    16    1
    16     8    10   ar
    17    13    10   ar
    18    13    15    1
    19    10     3    1
    20     3     6   ar
    21     3     5   ar
    22     6     4   ar
    23     5     2   ar
    24     4     1   ar
    25     2     1   ar
    26     1     7    1
