@<TRIPOS>MOLECULE
mol_data/opt/m06hf/geoms/mol2/84.out
 18 19 0 0 0
SMALL
GASTEIGER

@<TRIPOS>ATOM
      1 C           0.0071   -0.0298   -0.0005 C.ar    1  LIG1        0.1605
      2 N           1.3364    0.0061   -0.0000 N.ar    1  LIG1       -0.1339
      3 C           1.1280    2.2589    0.0004 C.ar    1  LIG1        0.2033
      4 N          -0.7795    1.0424   -0.0006 N.ar    1  LIG1       -0.1339
      5 N           1.9066    1.1728    0.0004 N.ar    1  LIG1       -0.1258
      6 N          -0.2073    2.2081   -0.0001 N.ar    1  LIG1       -0.1258
      7 H          -0.4678   -0.9995   -0.0009 H       1  LIG1        0.1085
      8 C           3.1741    3.6814    0.0015 C.ar    1  LIG1       -0.0509
      9 C           3.7815    4.9318    0.0020 C.ar    1  LIG1       -0.0611
     10 C           1.7811    3.5924    0.0009 C.ar    1  LIG1        0.0226
     11 C           3.0030    6.0873    0.0019 C.ar    1  LIG1       -0.0617
     12 H           4.8608    5.0030    0.0024 H       1  LIG1        0.0618
     13 C           0.9974    4.7474    0.0009 C.ar    1  LIG1       -0.0509
     14 C           1.6129    5.9940    0.0014 C.ar    1  LIG1       -0.0611
     15 H          -0.0804    4.6580    0.0004 H       1  LIG1        0.0625
     16 H           3.4790    7.0593    0.0023 H       1  LIG1        0.0618
     17 H           3.7642    2.7751    0.0015 H       1  LIG1        0.0625
     18 H           1.0075    6.8902    0.0013 H       1  LIG1        0.0618
@<TRIPOS>BOND
     1     7     1    1
     2     4     1   ar
     3     4     6   ar
     4     1     2   ar
     5     6     3   ar
     6     2     5   ar
     7     3     5   ar
     8     3    10    1
     9    15    13    1
    10    13    10   ar
    11    13    14   ar
    12    10     8   ar
    13    18    14    1
    14    14    11   ar
    15     8    17    1
    16     8     9   ar
    17    11     9   ar
    18    11    16    1
    19     9    12    1
