@<TRIPOS>MOLECULE
mol_data/opt/m06hf/geoms/mol2/8412.out
 25 27 0 0 0
SMALL
GASTEIGER

@<TRIPOS>ATOM
      1 C          -0.0005   -0.0865   -0.0013 C.ar    1  LIG1        0.1605
      2 N           1.3286   -0.0429   -0.0006 N.ar    1  LIG1       -0.1339
      3 C           1.1074    2.2090    0.0003 C.ar    1  LIG1        0.2033
      4 N          -0.7932    0.9817   -0.0012 N.ar    1  LIG1       -0.1339
      5 N           1.8922    1.1270    0.0002 N.ar    1  LIG1       -0.1258
      6 N          -0.2282    2.1506   -0.0004 N.ar    1  LIG1       -0.1258
      7 H          -0.4706   -1.0584   -0.0020 H       1  LIG1        0.1085
      8 C           3.1458    3.6444    0.0019 C.ar    1  LIG1       -0.0503
      9 C           3.7468    4.8937    0.0028 C.ar    1  LIG1       -0.0504
     10 C           1.7526    3.5441    0.0012 C.ar    1  LIG1        0.0227
     11 C           2.9654    6.0541    0.0029 C.ar    1  LIG1        0.0173
     12 H           4.8259    4.9667    0.0034 H       1  LIG1        0.0625
     13 C           0.9668    4.6972    0.0013 C.ar    1  LIG1       -0.0503
     14 C           1.5715    5.9467    0.0022 C.ar    1  LIG1       -0.0504
     15 H          -0.1106    4.6052    0.0007 H       1  LIG1        0.0625
     16 H           3.7442    2.7436    0.0018 H       1  LIG1        0.0625
     17 H           0.9692    6.8445    0.0023 H       1  LIG1        0.0625
     18 C           3.6010    7.3797    0.0038 C.ar    1  LIG1        0.1348
     19 C           4.8969    7.7988    0.0045 C.ar    1  LIG1       -0.0159
     20 C           4.8547    9.2342    0.0051 C.ar    1  LIG1       -0.0233
     21 C           3.5404    9.5643    0.0050 C.ar    1  LIG1        0.0926
     22 O           2.7788    8.4535    0.0040 O.2     1  LIG1       -0.4629
     23 H           3.0156   10.5033    0.0053 H       1  LIG1        0.1029
     24 H           5.7753    7.1766    0.0045 H       1  LIG1        0.0655
     25 H           5.6886    9.9140    0.0057 H       1  LIG1        0.0649
@<TRIPOS>BOND
     1     7     1    1
     2     1     4   ar
     3     1     2   ar
     4     4     6   ar
     5     2     5   ar
     6     6     3   ar
     7     5     3   ar
     8     3    10    1
     9    15    13    1
    10    10    13   ar
    11    10     8   ar
    12    13    14   ar
    13    16     8    1
    14     8     9   ar
    15    14    17    1
    16    14    11   ar
    17     9    11   ar
    18     9    12    1
    19    11    18    1
    20    18    22   ar
    21    18    19   ar
    22    22    21   ar
    23    24    19    1
    24    19    20   ar
    25    21    20   ar
    26    21    23    1
    27    20    25    1
