@<TRIPOS>MOLECULE
mol_data/opt/m06hf/geoms/mol2/8412-.out
 25 27 0 0 0
SMALL
GASTEIGER

@<TRIPOS>ATOM
      1 C          -0.0271   -0.0735   -0.0013 C.ar    1  LIG1        0.1605
      2 N           1.3028   -0.0414   -0.0006 N.ar    1  LIG1       -0.1339
      3 C           1.1012    2.2120    0.0003 C.ar    1  LIG1        0.2033
      4 N          -0.8103    1.0012   -0.0012 N.ar    1  LIG1       -0.1339
      5 N           1.8767    1.1232    0.0002 N.ar    1  LIG1       -0.1258
      6 N          -0.2347    2.1652   -0.0004 N.ar    1  LIG1       -0.1258
      7 H          -0.5041   -1.0421   -0.0020 H       1  LIG1        0.1085
      8 C           3.1493    3.6319    0.0019 C.ar    1  LIG1       -0.0503
      9 C           3.7624    4.8772    0.0028 C.ar    1  LIG1       -0.0504
     10 C           1.7568    3.5420    0.0012 C.ar    1  LIG1        0.0227
     11 C           2.9896    6.0423    0.0029 C.ar    1  LIG1        0.0173
     12 H           4.8407    4.9548    0.0034 H       1  LIG1        0.0625
     13 C           0.9788    4.7022    0.0013 C.ar    1  LIG1       -0.0503
     14 C           1.5940    5.9445    0.0022 C.ar    1  LIG1       -0.0504
     15 H          -0.0995    4.6197    0.0008 H       1  LIG1        0.0625
     16 H           3.7396    2.7258    0.0018 H       1  LIG1        0.0625
     17 H           0.9878    6.8401    0.0023 H       1  LIG1        0.0625
     18 C           3.6437    7.3589    0.0038 C.ar    1  LIG1        0.1348
     19 C           3.1769    8.6384    0.0043 C.ar    1  LIG1       -0.0159
     20 C           4.3344    9.4881    0.0053 C.ar    1  LIG1       -0.0233
     21 C           5.4032    8.6550    0.0051 C.ar    1  LIG1        0.0926
     22 O           4.9961    7.3712    0.0043 O.2     1  LIG1       -0.4629
     23 H           6.4664    8.8189    0.0055 H       1  LIG1        0.1029
     24 H           2.1460    8.9482    0.0042 H       1  LIG1        0.0655
     25 H           4.3574   10.5637    0.0059 H       1  LIG1        0.0649
@<TRIPOS>BOND
     1     7     1    1
     2     1     4   ar
     3     1     2   ar
     4     4     6   ar
     5     2     5   ar
     6     6     3   ar
     7     5     3   ar
     8     3    10    1
     9    15    13    1
    10    10    13   ar
    11    10     8   ar
    12    13    14   ar
    13    16     8    1
    14     8     9   ar
    15    14    17    1
    16    14    11   ar
    17     9    11   ar
    18     9    12    1
    19    11    18    1
    20    18    19   ar
    21    18    22   ar
    22    24    19    1
    23    19    20   ar
    24    22    21   ar
    25    21    20   ar
    26    21    23    1
    27    20    25    1
