@<TRIPOS>MOLECULE
mol_data/opt/m06hf/geoms/mol2/8413-8.out
 32 35 0 0 0
SMALL
GASTEIGER

@<TRIPOS>ATOM
      1 C          -0.0901   -0.1000   -0.1128 C.ar    1  LIG1        0.1605
      2 N           1.1724   -0.0590    0.3038 N.ar    1  LIG1       -0.1339
      3 C           1.0604    2.1720   -0.0508 C.ar    1  LIG1        0.2033
      4 N          -0.7947    0.9590   -0.5023 N.ar    1  LIG1       -0.1339
      5 N           1.7585    1.0996    0.3343 N.ar    1  LIG1       -0.1258
      6 N          -0.2072    2.1168   -0.4702 N.ar    1  LIG1       -0.1258
      7 H          -0.5775   -1.0631   -0.1378 H       1  LIG1        0.1085
      8 C           3.0467    3.5951    0.4375 C.ar    1  LIG1       -0.0503
      9 C           3.6629    4.8375    0.4956 C.ar    1  LIG1       -0.0520
     10 C           1.7271    3.4964   -0.0059 C.ar    1  LIG1        0.0227
     11 C           2.9742    5.9893    0.0992 C.ar    1  LIG1       -0.0017
     12 H           4.6713    4.9157    0.8827 H       1  LIG1        0.0624
     13 C           1.0295    4.6409   -0.3985 C.ar    1  LIG1       -0.0503
     14 C           1.6546    5.8782   -0.3516 C.ar    1  LIG1       -0.0520
     15 H           0.0092    4.5476   -0.7451 H       1  LIG1        0.0625
     16 H           3.5697    2.7008    0.7477 H       1  LIG1        0.0625
     17 H           1.1299    6.7646   -0.6824 H       1  LIG1        0.0624
     18 C           3.6133    7.3158    0.1660 C.ar    1  LIG1        0.0470
     19 C           3.0629    8.5597    0.4437 C.ar    1  LIG1       -0.0357
     20 C           4.1096    9.5060    0.4094 C.ar    1  LIG1       -0.0326
     21 C           5.2642    8.8089    0.1090 C.ar    1  LIG1        0.0879
     22 N           4.9474    7.4897   -0.0283 N.ar    1  LIG1       -0.3516
     23 H           5.6137    6.7852   -0.3134 H       1  LIG1        0.1660
     24 H           2.0289    8.7444    0.6810 H       1  LIG1        0.0639
     25 H           4.0554   10.5665    0.5882 H       1  LIG1        0.0640
     26 C           6.6337    9.2644   -0.0652 C.ar    1  LIG1        0.2193
     27 N           7.5560    8.3460   -0.3658 N.ar    1  LIG1       -0.1243
     28 C           9.0348   10.0377   -0.3704 C.ar    1  LIG1        0.1605
     29 N           6.8928   10.5711    0.0848 N.ar    1  LIG1       -0.1243
     30 N           8.7849    8.7422   -0.5219 N.ar    1  LIG1       -0.1338
     31 N           8.1180   10.9602   -0.0714 N.ar    1  LIG1       -0.1338
     32 H          10.0531   10.3718   -0.4991 H       1  LIG1        0.1085
@<TRIPOS>BOND
     1    15    13    1
     2    17    14    1
     3    30    28   ar
     4    30    27   ar
     5     4     6   ar
     6     4     1   ar
     7    32    28    1
     8     6     3   ar
     9    13    14   ar
    10    13    10   ar
    11    28    31   ar
    12    27    26   ar
    13    14    11   ar
    14    23    22    1
    15     7     1    1
    16     1     2   ar
    17    31    29   ar
    18    26    29   ar
    19    26    21    1
    20     3    10    1
    21     3     5   ar
    22    22    21   ar
    23    22    18   ar
    24    10     8   ar
    25    11    18    1
    26    11     9   ar
    27    21    20   ar
    28    18    19   ar
    29     2     5   ar
    30    20    19   ar
    31    20    25    1
    32     8     9   ar
    33     8    16    1
    34    19    24    1
    35     9    12    1
