@<TRIPOS>MOLECULE
mol_data/opt/m06hf/geoms/mol2/844-.out
 28 30 0 0 0
SMALL
GASTEIGER

@<TRIPOS>ATOM
      1 C          -0.0446   -0.1070   -0.0040 C.ar    1  LIG1        0.1605
      2 N           1.2251   -0.0456    0.3867 N.ar    1  LIG1       -0.1339
      3 C           1.0818    2.1786   -0.0016 C.ar    1  LIG1        0.2033
      4 N          -0.7691    0.9381   -0.3935 N.ar    1  LIG1       -0.1339
      5 N           1.7986    1.1195    0.3872 N.ar    1  LIG1       -0.1258
      6 N          -0.1944    2.1026   -0.3915 N.ar    1  LIG1       -0.1258
      7 H          -0.5220   -1.0755   -0.0050 H       1  LIG1        0.1085
      8 C           3.0707    3.6274    0.3966 C.ar    1  LIG1       -0.0504
      9 C           3.6798    4.8752    0.3979 C.ar    1  LIG1       -0.0534
     10 C           1.7377    3.5094   -0.0001 C.ar    1  LIG1        0.0227
     11 C           2.9729    6.0157    0.0027 C.ar    1  LIG1       -0.0178
     12 H           4.7052    4.9726    0.7306 H       1  LIG1        0.0624
     13 C           1.0196    4.6391   -0.3953 C.ar    1  LIG1       -0.0504
     14 C           1.6381    5.8823   -0.3939 C.ar    1  LIG1       -0.0534
     15 H          -0.0102    4.5315   -0.7074 H       1  LIG1        0.0625
     16 H           3.6123    2.7446    0.7076 H       1  LIG1        0.0625
     17 H           1.0910    6.7554   -0.7255 H       1  LIG1        0.0624
     18 C           2.9545    8.4775    0.4855 C.ar    1  LIG1       -0.0540
     19 C           3.5694    9.7254    0.4859 C.ar    1  LIG1       -0.0612
     20 C           3.6325    7.3542    0.0042 C.ar    1  LIG1       -0.0179
     21 C           4.8696    9.8643    0.0069 C.ar    1  LIG1       -0.0617
     22 H           3.0363   10.5862    0.8681 H       1  LIG1        0.0618
     23 C           4.9368    7.5017   -0.4757 C.ar    1  LIG1       -0.0540
     24 C           5.5519    8.7495   -0.4734 C.ar    1  LIG1       -0.0612
     25 H           5.4589    6.6401   -0.8738 H       1  LIG1        0.0624
     26 H           5.3480   10.8350    0.0080 H       1  LIG1        0.0618
     27 H           1.9530    8.3660    0.8825 H       1  LIG1        0.0624
     28 H           6.5596    8.8517   -0.8545 H       1  LIG1        0.0618
@<TRIPOS>BOND
     1    25    23    1
     2    28    24    1
     3    17    14    1
     4    15    13    1
     5    23    24   ar
     6    23    20   ar
     7    24    21   ar
     8    13    14   ar
     9    13    10   ar
    10    14    11   ar
    11     4     6   ar
    12     4     1   ar
    13     6     3   ar
    14     7     1    1
    15     1     2   ar
    16     3    10    1
    17     3     5   ar
    18    10     8   ar
    19    11    20    1
    20    11     9   ar
    21    20    18   ar
    22    21    26    1
    23    21    19   ar
    24     2     5   ar
    25     8     9   ar
    26     8    16    1
    27     9    12    1
    28    18    19   ar
    29    18    27    1
    30    19    22    1
