@<TRIPOS>MOLECULE
mol_data/opt/m06hf/geoms/mol2/84412.out
 35 38 0 0 0
SMALL
GASTEIGER

@<TRIPOS>ATOM
      1 C          -0.0233   -0.1869    0.0046 C.ar    1  LIG1        0.1605
      2 N           1.2114   -0.0926    0.4897 N.ar    1  LIG1       -0.1339
      3 C           1.0749    2.1127    0.0032 C.ar    1  LIG1        0.2033
      4 N          -0.7260    0.8321   -0.4820 N.ar    1  LIG1       -0.1339
      5 N           1.7704    1.0795    0.4883 N.ar    1  LIG1       -0.1258
      6 N          -0.1658    2.0037   -0.4819 N.ar    1  LIG1       -0.1258
      7 H          -0.4892   -1.1610    0.0058 H       1  LIG1        0.1085
      8 C           3.0076    3.6038    0.5051 C.ar    1  LIG1       -0.0504
      9 C           3.6018    4.8587    0.5045 C.ar    1  LIG1       -0.0534
     10 C           1.7140    3.4515    0.0039 C.ar    1  LIG1        0.0227
     11 C           2.9171    5.9717    0.0058 C.ar    1  LIG1       -0.0178
     12 H           4.5955    4.9849    0.9152 H       1  LIG1        0.0624
     13 C           1.0193    4.5538   -0.4965 C.ar    1  LIG1       -0.0504
     14 C           1.6213    5.8050   -0.4937 C.ar    1  LIG1       -0.0534
     15 H           0.0204    4.4181   -0.8888 H       1  LIG1        0.0625
     16 H           3.5302    2.7416    0.8970 H       1  LIG1        0.0625
     17 H           1.0948    6.6578   -0.9032 H       1  LIG1        0.0624
     18 C           4.8844    7.4724   -0.4125 C.ar    1  LIG1       -0.0534
     19 C           5.4842    8.7237   -0.4143 C.ar    1  LIG1       -0.0505
     20 C           3.5596    7.3172    0.0071 C.ar    1  LIG1       -0.0178
     21 C           4.7707    9.8485    0.0080 C.ar    1  LIG1        0.0173
     22 H           6.5067    8.8260   -0.7532 H       1  LIG1        0.0625
     23 C           2.8502    8.4448    0.4271 C.ar    1  LIG1       -0.0534
     24 C           3.4474    9.6991    0.4300 C.ar    1  LIG1       -0.0505
     25 H           1.8310    8.3341    0.7762 H       1  LIG1        0.0624
     26 H           5.4376    6.6097   -0.7625 H       1  LIG1        0.0624
     27 H           2.8963   10.5675    0.7646 H       1  LIG1        0.0625
     28 C           5.3993   11.1785    0.0088 C.ar    1  LIG1        0.1348
     29 C           6.6403   11.6304   -0.3224 C.ar    1  LIG1       -0.0159
     30 C           6.6228   13.0503   -0.1027 C.ar    1  LIG1       -0.0233
     31 C           5.3768   13.3392    0.3430 C.ar    1  LIG1        0.0926
     32 O           4.6332   12.2171    0.4133 O.2     1  LIG1       -0.4629
     33 H           4.8917   14.2523    0.6385 H       1  LIG1        0.1029
     34 H           7.4676   11.0406   -0.6777 H       1  LIG1        0.0655
     35 H           7.4284   13.7469   -0.2575 H       1  LIG1        0.0649
@<TRIPOS>BOND
     1    17    14    1
     2    15    13    1
     3    26    18    1
     4    22    19    1
     5    34    29    1
     6    13    14   ar
     7    13    10   ar
     8    14    11   ar
     9     4     6   ar
    10     4     1   ar
    11     6     3   ar
    12    19    18   ar
    13    19    21   ar
    14    18    20   ar
    15    29    30   ar
    16    29    28   ar
    17    35    30    1
    18    30    31   ar
    19     3    10    1
    20     3     5   ar
    21    10     8   ar
    22     1     7    1
    23     1     2   ar
    24    11    20    1
    25    11     9   ar
    26    20    23   ar
    27    21    28    1
    28    21    24   ar
    29    28    32   ar
    30    31    32   ar
    31    31    33    1
    32    23    24   ar
    33    23    25    1
    34    24    27    1
    35     5     2   ar
    36     9     8   ar
    37     9    12    1
    38     8    16    1
