@<TRIPOS>MOLECULE
mol_data/opt/m06hf/geoms/mol2/8448-.out
 34 37 0 0 0
SMALL
GASTEIGER

@<TRIPOS>ATOM
      1 C          -0.0294   -0.1704   -0.0001 C.ar    1  LIG1        0.1605
      2 N           1.2164   -0.0849    0.4577 N.ar    1  LIG1       -0.1339
      3 C           1.0738    2.1259    0.0017 C.ar    1  LIG1        0.2033
      4 N          -0.7409    0.8562   -0.4570 N.ar    1  LIG1       -0.1339
      5 N           1.7780    1.0860    0.4578 N.ar    1  LIG1       -0.1258
      6 N          -0.1778    2.0264   -0.4553 N.ar    1  LIG1       -0.1258
      7 H          -0.4970   -1.1436   -0.0008 H       1  LIG1        0.1085
      8 C           3.0228    3.6061    0.4728 C.ar    1  LIG1       -0.0504
      9 C           3.6208    4.8593    0.4712 C.ar    1  LIG1       -0.0534
     10 C           1.7165    3.4637    0.0028 C.ar    1  LIG1        0.0227
     11 C           2.9247    5.9786    0.0047 C.ar    1  LIG1       -0.0178
     12 H           4.6261    4.9778    0.8553 H       1  LIG1        0.0624
     13 C           1.0117    4.5730   -0.4663 C.ar    1  LIG1       -0.0504
     14 C           1.6162    5.8231   -0.4627 C.ar    1  LIG1       -0.0534
     15 H           0.0027    4.4444   -0.8343 H       1  LIG1        0.0625
     16 H           3.5527    2.7376    0.8400 H       1  LIG1        0.0625
     17 H           1.0807    6.6824   -0.8461 H       1  LIG1        0.0624
     18 C           4.8798    7.4792   -0.4601 C.ar    1  LIG1       -0.0534
     19 C           5.4843    8.7293   -0.4617 C.ar    1  LIG1       -0.0504
     20 C           3.5707    7.3232    0.0058 C.ar    1  LIG1       -0.0178
     21 C           4.7789    9.8381    0.0077 C.ar    1  LIG1        0.0227
     22 H           6.4937    8.8582   -0.8284 H       1  LIG1        0.0625
     23 C           2.8741    8.4420    0.4726 C.ar    1  LIG1       -0.0534
     24 C           3.4722    9.6952    0.4761 C.ar    1  LIG1       -0.0504
     25 H           1.8685    8.3232    0.8555 H       1  LIG1        0.0624
     26 H           5.4157    6.6203   -0.8437 H       1  LIG1        0.0624
     27 H           2.9418   10.5634    0.8436 H       1  LIG1        0.0625
     28 C           5.4217   11.1759    0.0088 C.ar    1  LIG1        0.2033
     29 N           4.7169   12.2153    0.4651 N.ar    1  LIG1       -0.1258
     30 C           6.5248   13.4722    0.0105 C.ar    1  LIG1        0.1605
     31 N           6.6738   11.2759   -0.4468 N.ar    1  LIG1       -0.1258
     32 N           5.2785   13.3862    0.4668 N.ar    1  LIG1       -0.1339
     33 N           7.2369   12.4461   -0.4466 N.ar    1  LIG1       -0.1339
     34 H           6.9924   14.4455    0.0113 H       1  LIG1        0.1085
@<TRIPOS>BOND
     1    17    14    1
     2    26    18    1
     3    15    13    1
     4    22    19    1
     5    13    14   ar
     6    13    10   ar
     7    14    11   ar
     8    19    18   ar
     9    19    21   ar
    10    18    20   ar
    11     4     6   ar
    12     4     1   ar
    13     6     3   ar
    14    31    33   ar
    15    31    28   ar
    16    33    30   ar
    17     7     1    1
    18     1     2   ar
    19     3    10    1
    20     3     5   ar
    21    10     8   ar
    22    11    20    1
    23    11     9   ar
    24    20    23   ar
    25    21    28    1
    26    21    24   ar
    27    28    29   ar
    28    30    34    1
    29    30    32   ar
    30     2     5   ar
    31    29    32   ar
    32     9     8   ar
    33     9    12    1
    34    23    24   ar
    35    23    25    1
    36     8    16    1
    37    24    27    1
