@<TRIPOS>MOLECULE
mol_data/opt/m06hf/geoms/mol2/845-.out
 25 27 0 0 0
SMALL
GASTEIGER

@<TRIPOS>ATOM
      1 C          -0.0048   -0.1092   -0.0014 C.ar    1  LIG1        0.1605
      2 N           1.3246   -0.0622   -0.0006 N.ar    1  LIG1       -0.1339
      3 C           1.0968    2.1884    0.0002 C.ar    1  LIG1        0.2033
      4 N          -0.8006    0.9561   -0.0015 N.ar    1  LIG1       -0.1339
      5 N           1.8852    1.1091    0.0002 N.ar    1  LIG1       -0.1258
      6 N          -0.2384    2.1268   -0.0007 N.ar    1  LIG1       -0.1258
      7 H          -0.4705   -1.0833   -0.0021 H       1  LIG1        0.1085
      8 C           3.1271    3.6344    0.0026 C.ar    1  LIG1       -0.0503
      9 C           3.7220    4.8882    0.0035 C.ar    1  LIG1       -0.0529
     10 C           1.7367    3.5255    0.0011 C.ar    1  LIG1        0.0227
     11 C           2.9457    6.0526    0.0030 C.ar    1  LIG1       -0.0113
     12 H           4.8028    4.9536    0.0048 H       1  LIG1        0.0624
     13 C           0.9486    4.6778    0.0006 C.ar    1  LIG1       -0.0503
     14 C           1.5503    5.9266    0.0014 C.ar    1  LIG1       -0.0529
     15 H          -0.1290    4.5858   -0.0006 H       1  LIG1        0.0625
     16 H           3.7304    2.7369    0.0030 H       1  LIG1        0.0625
     17 H           0.9258    6.8085    0.0006 H       1  LIG1        0.0624
     18 C           3.5749    7.3927    0.0040 C.ar    1  LIG1        0.0193
     19 C           2.9642    8.6153    0.0061 C.ar    1  LIG1       -0.0469
     20 C           3.8880    9.7082    0.0064 C.ar    1  LIG1       -0.0541
     21 C           5.1822    9.2912    0.0045 C.ar    1  LIG1       -0.0237
     22 S           5.2992    7.5766    0.0025 S.2     1  LIG1       -0.0967
     23 H           6.0758    9.8933    0.0043 H       1  LIG1        0.0693
     24 H           1.8933    8.7506    0.0076 H       1  LIG1        0.0629
     25 H           3.5929   10.7466    0.0080 H       1  LIG1        0.0623
@<TRIPOS>BOND
     1     7     1    1
     2     4     1   ar
     3     4     6   ar
     4     1     2   ar
     5     6     3   ar
     6    15    13    1
     7     2     5   ar
     8     3     5   ar
     9     3    10    1
    10    13    10   ar
    11    13    14   ar
    12    17    14    1
    13    10     8   ar
    14    14    11   ar
    15    22    18   ar
    16    22    21   ar
    17     8    16    1
    18     8     9   ar
    19    11     9   ar
    20    11    18    1
    21     9    12    1
    22    18    19   ar
    23    23    21    1
    24    21    20   ar
    25    19    20   ar
    26    19    24    1
    27    20    25    1
