@<TRIPOS>MOLECULE
mol_data/opt/m06hf/geoms/mol2/845.out
 25 27 0 0 0
SMALL
GASTEIGER

@<TRIPOS>ATOM
      1 C          -0.0426   -0.0907   -0.0013 C.ar    1  LIG1        0.1605
      2 N           1.2869   -0.0628   -0.0004 N.ar    1  LIG1       -0.1339
      3 C           1.0913    2.1912    0.0003 C.ar    1  LIG1        0.2033
      4 N          -0.8233    0.9863   -0.0014 N.ar    1  LIG1       -0.1339
      5 N           1.8641    1.1006    0.0004 N.ar    1  LIG1       -0.1258
      6 N          -0.2447    2.1488   -0.0006 N.ar    1  LIG1       -0.1258
      7 H          -0.5241   -1.0571   -0.0020 H       1  LIG1        0.1085
      8 C           3.1451    3.6056    0.0029 C.ar    1  LIG1       -0.0503
      9 C           3.7596    4.8481    0.0039 C.ar    1  LIG1       -0.0529
     10 C           1.7519    3.5181    0.0013 C.ar    1  LIG1        0.0227
     11 C           3.0006    6.0258    0.0029 C.ar    1  LIG1       -0.0113
     12 H           4.8391    4.8983    0.0056 H       1  LIG1        0.0624
     13 C           0.9824    4.6813    0.0005 C.ar    1  LIG1       -0.0503
     14 C           1.6050    5.9216    0.0012 C.ar    1  LIG1       -0.0529
     15 H          -0.0963    4.6049   -0.0008 H       1  LIG1        0.0625
     16 H           3.7355    2.6994    0.0036 H       1  LIG1        0.0625
     17 H           0.9918    6.8140    0.0003 H       1  LIG1        0.0624
     18 C           3.6701    7.3463    0.0038 C.ar    1  LIG1        0.0193
     19 C           5.0096    7.6168    0.0019 C.ar    1  LIG1       -0.0469
     20 C           5.3031    9.0175    0.0036 C.ar    1  LIG1       -0.0541
     21 C           4.1782    9.7813    0.0067 C.ar    1  LIG1       -0.0237
     22 S           2.7544    8.8188    0.0074 S.2     1  LIG1       -0.0967
     23 H           4.1032   10.8563    0.0085 H       1  LIG1        0.0693
     24 H           5.7751    6.8557   -0.0008 H       1  LIG1        0.0629
     25 H           6.3033    9.4236    0.0026 H       1  LIG1        0.0623
@<TRIPOS>BOND
     1     7     1    1
     2     4     1   ar
     3     4     6   ar
     4     1     2   ar
     5    15    13    1
     6    24    19    1
     7     6     3   ar
     8     2     5   ar
     9     3     5   ar
    10     3    10    1
    11    17    14    1
    12    13    14   ar
    13    13    10   ar
    14    14    11   ar
    15    10     8   ar
    16    19    20   ar
    17    19    18   ar
    18    25    20    1
    19     8    16    1
    20     8     9   ar
    21    11    18    1
    22    11     9   ar
    23    20    21   ar
    24    18    22   ar
    25     9    12    1
    26    21    22   ar
    27    21    23    1
