@<TRIPOS>MOLECULE
mol_data/opt/m06hf/geoms/mol2/8454-.out
 35 38 0 0 0
SMALL
GASTEIGER

@<TRIPOS>ATOM
      1 C           0.0030   -0.2093    0.2939 C.ar    1  LIG1        0.1605
      2 N           1.3080   -0.1325    0.5385 N.ar    1  LIG1       -0.1339
      3 C           1.1045    2.0828    0.1272 C.ar    1  LIG1        0.2033
      4 N          -0.7686    0.8239   -0.0335 N.ar    1  LIG1       -0.1339
      5 N           1.8690    1.0358    0.4528 N.ar    1  LIG1       -0.1258
      6 N          -0.2063    1.9912   -0.1180 N.ar    1  LIG1       -0.1258
      7 H          -0.4646   -1.1797    0.3673 H       1  LIG1        0.1085
      8 C           3.1096    3.5552    0.2860 C.ar    1  LIG1       -0.0503
      9 C           3.7024    4.8073    0.2070 C.ar    1  LIG1       -0.0529
     10 C           1.7435    3.4178    0.0331 C.ar    1  LIG1        0.0227
     11 C           2.9440    5.9319   -0.1379 C.ar    1  LIG1       -0.0113
     12 H           4.7535    4.9254    0.4344 H       1  LIG1        0.0624
     13 C           0.9754    4.5342   -0.3013 C.ar    1  LIG1       -0.0503
     14 C           1.5757    5.7822   -0.3888 C.ar    1  LIG1       -0.0529
     15 H          -0.0812    4.4127   -0.4974 H       1  LIG1        0.0625
     16 H           3.6888    2.6821    0.5546 H       1  LIG1        0.0625
     17 H           0.9859    6.6442   -0.6733 H       1  LIG1        0.0624
     18 C           3.5925    7.2567   -0.2380 C.ar    1  LIG1        0.0199
     19 C           4.8377    7.5462   -0.7194 C.ar    1  LIG1       -0.0463
     20 C           5.1391    8.9430   -0.6773 C.ar    1  LIG1       -0.0463
     21 C           4.1211    9.6933   -0.1616 C.ar    1  LIG1        0.0199
     22 S           2.7839    8.6912    0.2903 S.2     1  LIG1       -0.0883
     23 H           5.4995    6.7956   -1.1271 H       1  LIG1        0.0629
     24 H           6.0564    9.3758   -1.0497 H       1  LIG1        0.0629
     25 C           2.9021   11.8828   -0.1618 C.ar    1  LIG1       -0.0535
     26 C           2.8860   13.2620    0.0175 C.ar    1  LIG1       -0.0612
     27 C           4.0823   11.1600    0.0351 C.ar    1  LIG1       -0.0113
     28 C           4.0483   13.9343    0.3858 C.ar    1  LIG1       -0.0617
     29 H           1.9675   13.8116   -0.1404 H       1  LIG1        0.0618
     30 C           5.2434   11.8388    0.4171 C.ar    1  LIG1       -0.0535
     31 C           5.2274   13.2191    0.5827 C.ar    1  LIG1       -0.0612
     32 H           6.1492   11.2765    0.6038 H       1  LIG1        0.0624
     33 H           4.0345   15.0075    0.5218 H       1  LIG1        0.0618
     34 H           2.0034   11.3657   -0.4751 H       1  LIG1        0.0624
     35 H           6.1318   13.7344    0.8786 H       1  LIG1        0.0618
@<TRIPOS>BOND
     1    23    19    1
     2    24    20    1
     3    19    20   ar
     4    19    18   ar
     5    20    21   ar
     6    17    14    1
     7    15    13    1
     8    34    25    1
     9    14    13   ar
    10    14    11   ar
    11    13    10   ar
    12    18    11    1
    13    18    22   ar
    14    25    26   ar
    15    25    27   ar
    16    21    27    1
    17    21    22   ar
    18    29    26    1
    19    11     9   ar
    20     6     4   ar
    21     6     3   ar
    22     4     1   ar
    23    26    28   ar
    24    10     3    1
    25    10     8   ar
    26    27    30   ar
    27     3     5   ar
    28     9     8   ar
    29     9    12    1
    30     8    16    1
    31     1     7    1
    32     1     2   ar
    33    28    33    1
    34    28    31   ar
    35    30    31   ar
    36    30    32    1
    37     5     2   ar
    38    31    35    1
