@<TRIPOS>MOLECULE
mol_data/opt/m06hf/geoms/mol2/848-.out
 24 26 0 0 0
SMALL
GASTEIGER

@<TRIPOS>ATOM
      1 C          -0.0098   -0.0714   -0.0012 C.ar    1  LIG1        0.1605
      2 N           1.3198   -0.0342   -0.0006 N.ar    1  LIG1       -0.1339
      3 C           1.1072    2.2165    0.0002 C.ar    1  LIG1        0.2033
      4 N          -0.7982    0.9997   -0.0011 N.ar    1  LIG1       -0.1339
      5 N           1.8882    1.1333    0.0001 N.ar    1  LIG1       -0.1258
      6 N          -0.2272    2.1661   -0.0003 N.ar    1  LIG1       -0.1258
      7 H          -0.4835   -1.0417   -0.0018 H       1  LIG1        0.1085
      8 C           3.1522    3.6423    0.0018 C.ar    1  LIG1       -0.0503
      9 C           3.7612    4.8897    0.0027 C.ar    1  LIG1       -0.0503
     10 C           1.7591    3.5519    0.0011 C.ar    1  LIG1        0.0227
     11 C           2.9756    6.0436    0.0028 C.ar    1  LIG1        0.0227
     12 H           4.8387    4.9783    0.0032 H       1  LIG1        0.0625
     13 C           0.9736    4.7059    0.0013 C.ar    1  LIG1       -0.0503
     14 C           1.5826    5.9533    0.0021 C.ar    1  LIG1       -0.0503
     15 H          -0.1040    4.6173    0.0007 H       1  LIG1        0.0625
     16 H           3.7451    2.7382    0.0017 H       1  LIG1        0.0625
     17 H           0.9897    6.8574    0.0023 H       1  LIG1        0.0625
     18 C           3.6276    7.3791    0.0037 C.ar    1  LIG1        0.2033
     19 N           2.8465    8.4622    0.0040 N.ar    1  LIG1       -0.1258
     20 C           4.7445    9.6670    0.0056 C.ar    1  LIG1        0.1605
     21 N           4.9620    7.4294    0.0044 N.ar    1  LIG1       -0.1258
     22 N           3.4150    9.6298    0.0049 N.ar    1  LIG1       -0.1339
     23 N           5.5329    8.5958    0.0053 N.ar    1  LIG1       -0.1339
     24 H           5.2182   10.6373    0.0062 H       1  LIG1        0.1085
@<TRIPOS>BOND
     1     7     1    1
     2     1     4   ar
     3     1     2   ar
     4     4     6   ar
     5     2     5   ar
     6     6     3   ar
     7     5     3   ar
     8     3    10    1
     9    15    13    1
    10    10    13   ar
    11    10     8   ar
    12    13    14   ar
    13    16     8    1
    14     8     9   ar
    15    14    17    1
    16    14    11   ar
    17     9    11   ar
    18     9    12    1
    19    11    18    1
    20    18    19   ar
    21    18    21   ar
    22    19    22   ar
    23    21    23   ar
    24    22    20   ar
    25    23    20   ar
    26    20    24    1
