@<TRIPOS>MOLECULE
mol_data/opt/m06hf/geoms/mol2/848-5-.out
 31 34 0 0 0
SMALL
GASTEIGER

@<TRIPOS>ATOM
      1 C          -0.0158   -0.1187   -0.0022 C.ar    1  LIG1        0.1605
      2 N           1.3137   -0.0768   -0.0016 N.ar    1  LIG1       -0.1339
      3 C           1.0934    2.1736   -0.0001 C.ar    1  LIG1        0.2033
      4 N          -0.8080    0.9496   -0.0018 N.ar    1  LIG1       -0.1339
      5 N           1.8782    1.0928   -0.0005 N.ar    1  LIG1       -0.1258
      6 N          -0.2411    2.1180   -0.0008 N.ar    1  LIG1       -0.1258
      7 H          -0.4854   -1.0910   -0.0032 H       1  LIG1        0.1085
      8 C           3.1326    3.6072    0.0019 C.ar    1  LIG1       -0.0503
      9 C           3.7369    4.8569    0.0031 C.ar    1  LIG1       -0.0503
     10 C           1.7397    3.5115    0.0012 C.ar    1  LIG1        0.0227
     11 C           2.9466    6.0080    0.0035 C.ar    1  LIG1        0.0227
     12 H           4.8142    4.9500    0.0036 H       1  LIG1        0.0625
     13 C           0.9494    4.6623    0.0016 C.ar    1  LIG1       -0.0503
     14 C           1.5535    5.9120    0.0028 C.ar    1  LIG1       -0.0503
     15 H          -0.1278    4.5689    0.0010 H       1  LIG1        0.0625
     16 H           3.7278    2.7047    0.0015 H       1  LIG1        0.0625
     17 H           0.9583    6.8144    0.0032 H       1  LIG1        0.0625
     18 C           3.5916    7.3456    0.0048 C.ar    1  LIG1        0.2034
     19 N           2.8070    8.4285    0.0051 N.ar    1  LIG1       -0.1252
     20 C           4.6997    9.6538    0.0068 C.ar    1  LIG1        0.2099
     21 N           4.9247    7.4082    0.0054 N.ar    1  LIG1       -0.1252
     22 N           3.3629    9.5964    0.0061 N.ar    1  LIG1       -0.1247
     23 N           5.4868    8.5752    0.0064 N.ar    1  LIG1       -0.1247
     24 C           5.3322   10.9724    0.0078 C.ar    1  LIG1        0.0598
     25 C           4.6962   12.1814    0.0083 C.ar    1  LIG1       -0.0438
     26 C           5.6187   13.2711    0.0093 C.ar    1  LIG1       -0.0540
     27 C           6.9152   12.8464    0.0096 C.ar    1  LIG1       -0.0236
     28 S           7.0485   11.1349    0.0086 S.2     1  LIG1       -0.0934
     29 H           7.8064   13.4530    0.0104 H       1  LIG1        0.0693
     30 H           3.6203   12.2721    0.0079 H       1  LIG1        0.0630
     31 H           5.3280   14.3104    0.0098 H       1  LIG1        0.0623
@<TRIPOS>BOND
     1     7     1    1
     2     1     4   ar
     3     1     2   ar
     4     4     6   ar
     5     2     5   ar
     6     6     3   ar
     7     5     3   ar
     8     3    10    1
     9    15    13    1
    10    10    13   ar
    11    10     8   ar
    12    16     8    1
    13    13    14   ar
    14     8     9   ar
    15    14    17    1
    16    14    11   ar
    17     9    11   ar
    18     9    12    1
    19    11    18    1
    20    18    19   ar
    21    18    21   ar
    22    19    22   ar
    23    21    23   ar
    24    22    20   ar
    25    23    20   ar
    26    20    24    1
    27    24    25   ar
    28    24    28   ar
    29    30    25    1
    30    25    26   ar
    31    28    27   ar
    32    26    27   ar
    33    26    31    1
    34    27    29    1
