@<TRIPOS>MOLECULE
mol_data/opt/m06hf/geoms/mol2/848-8-.out
 30 33 0 0 0
SMALL
GASTEIGER

@<TRIPOS>ATOM
      1 C          -0.0225   -0.1002   -0.0016 C.ar    1  LIG1        0.1605
      2 N           1.3071   -0.0627   -0.0010 N.ar    1  LIG1       -0.1339
      3 C           1.0936    2.1878    0.0000 C.ar    1  LIG1        0.2033
      4 N          -0.8114    0.9708   -0.0014 N.ar    1  LIG1       -0.1339
      5 N           1.8751    1.1052   -0.0001 N.ar    1  LIG1       -0.1258
      6 N          -0.2407    2.1373   -0.0006 N.ar    1  LIG1       -0.1258
      7 H          -0.4959   -1.0707   -0.0024 H       1  LIG1        0.1085
      8 C           3.1386    3.6133    0.0018 C.ar    1  LIG1       -0.0503
      9 C           3.7477    4.8607    0.0028 C.ar    1  LIG1       -0.0503
     10 C           1.7454    3.5240    0.0011 C.ar    1  LIG1        0.0227
     11 C           2.9599    6.0137    0.0031 C.ar    1  LIG1        0.0227
     12 H           4.8251    4.9500    0.0034 H       1  LIG1        0.0625
     13 C           0.9582    4.6770    0.0014 C.ar    1  LIG1       -0.0503
     14 C           1.5663    5.9248    0.0024 C.ar    1  LIG1       -0.0503
     15 H          -0.1192    4.5868    0.0008 H       1  LIG1        0.0625
     16 H           3.7307    2.7088    0.0016 H       1  LIG1        0.0625
     17 H           0.9735    6.8289    0.0026 H       1  LIG1        0.0625
     18 C           3.6103    7.3471    0.0042 C.ar    1  LIG1        0.2034
     19 N           2.8309    8.4328    0.0044 N.ar    1  LIG1       -0.1251
     20 C           4.7273    9.6367    0.0062 C.ar    1  LIG1        0.2435
     21 N           4.9458    7.4012    0.0049 N.ar    1  LIG1       -0.1251
     22 N           3.3972    9.5986    0.0054 N.ar    1  LIG1       -0.1218
     23 N           5.5159    8.5651    0.0059 N.ar    1  LIG1       -0.1218
     24 C           5.3830   10.9810    0.0072 C.ar    1  LIG1        0.2434
     25 N           4.5902   12.0497    0.0078 N.ar    1  LIG1       -0.1224
     26 C           6.4912   13.2528    0.0101 C.ar    1  LIG1        0.1605
     27 N           6.7132   11.0140    0.0081 N.ar    1  LIG1       -0.1224
     28 N           5.1613   13.2177    0.0090 N.ar    1  LIG1       -0.1338
     29 N           7.2822   12.1831    0.0094 N.ar    1  LIG1       -0.1338
     30 H           6.9647   14.2235    0.0106 H       1  LIG1        0.1085
@<TRIPOS>BOND
     1     7     1    1
     2     1     4   ar
     3     1     2   ar
     4     4     6   ar
     5     2     5   ar
     6     6     3   ar
     7     5     3   ar
     8     3    10    1
     9    15    13    1
    10    10    13   ar
    11    10     8   ar
    12    13    14   ar
    13    16     8    1
    14     8     9   ar
    15    14    17    1
    16    14    11   ar
    17     9    11   ar
    18     9    12    1
    19    11    18    1
    20    18    19   ar
    21    18    21   ar
    22    19    22   ar
    23    21    23   ar
    24    22    20   ar
    25    23    20   ar
    26    20    24    1
    27    24    25   ar
    28    24    27   ar
    29    25    28   ar
    30    27    29   ar
    31    28    26   ar
    32    29    26   ar
    33    26    30    1
