@<TRIPOS>MOLECULE
mol_data/opt/m06hf/geoms/mol2/84812-.out
 31 34 0 0 0
SMALL
GASTEIGER

@<TRIPOS>ATOM
      1 C          -0.0750   -0.0760   -0.0019 C.ar    1  LIG1        0.1605
      2 N           1.2549   -0.0565   -0.0013 N.ar    1  LIG1       -0.1339
      3 C           1.0729    2.1974    0.0000 C.ar    1  LIG1        0.2033
      4 N          -0.8489    1.0057   -0.0016 N.ar    1  LIG1       -0.1339
      5 N           1.8391    1.1033   -0.0003 N.ar    1  LIG1       -0.1258
      6 N          -0.2623    2.1643   -0.0006 N.ar    1  LIG1       -0.1258
      7 H          -0.5615   -1.0399   -0.0027 H       1  LIG1        0.1085
      8 C           3.1367    3.5957    0.0019 C.ar    1  LIG1       -0.0503
      9 C           3.7623    4.8349    0.0029 C.ar    1  LIG1       -0.0503
     10 C           1.7424    3.5239    0.0012 C.ar    1  LIG1        0.0227
     11 C           2.9918    5.9994    0.0033 C.ar    1  LIG1        0.0227
     12 H           4.8409    4.9102    0.0035 H       1  LIG1        0.0625
     13 C           0.9719    4.6880    0.0015 C.ar    1  LIG1       -0.0503
     14 C           1.5973    5.9273    0.0026 C.ar    1  LIG1       -0.0503
     15 H          -0.1067    4.6131    0.0010 H       1  LIG1        0.0625
     16 H           3.7170    2.6834    0.0016 H       1  LIG1        0.0625
     17 H           1.0169    6.8395    0.0029 H       1  LIG1        0.0625
     18 C           3.6610    7.3252    0.0044 C.ar    1  LIG1        0.2034
     19 N           4.9944    7.3634    0.0051 N.ar    1  LIG1       -0.1251
     20 C           4.8123    9.6059    0.0064 C.ar    1  LIG1        0.2381
     21 N           2.8951    8.4221    0.0048 N.ar    1  LIG1       -0.1251
     22 N           5.5850    8.5186    0.0061 N.ar    1  LIG1       -0.1220
     23 N           3.4748    9.5774    0.0058 N.ar    1  LIG1       -0.1220
     24 C           5.4377   10.9267    0.0075 C.ar    1  LIG1        0.1751
     25 C           4.8902   12.1727    0.0081 C.ar    1  LIG1       -0.0126
     26 C           5.9998   13.0783    0.0091 C.ar    1  LIG1       -0.0232
     27 C           7.1131   12.2984    0.0092 C.ar    1  LIG1        0.0927
     28 O           6.7815   10.9971    0.0081 O.2     1  LIG1       -0.4597
     29 H           8.1656   12.5208    0.0098 H       1  LIG1        0.1029
     30 H           3.8373   12.3979    0.0077 H       1  LIG1        0.0656
     31 H           5.9694   14.1536    0.0098 H       1  LIG1        0.0649
@<TRIPOS>BOND
     1     7     1    1
     2     1     4   ar
     3     1     2   ar
     4     4     6   ar
     5     2     5   ar
     6     6     3   ar
     7     5     3   ar
     8     3    10    1
     9    15    13    1
    10    10    13   ar
    11    10     8   ar
    12    13    14   ar
    13    16     8    1
    14     8     9   ar
    15    14    17    1
    16    14    11   ar
    17     9    11   ar
    18     9    12    1
    19    11    18    1
    20    18    21   ar
    21    18    19   ar
    22    21    23   ar
    23    19    22   ar
    24    23    20   ar
    25    22    20   ar
    26    20    24    1
    27    24    25   ar
    28    24    28   ar
    29    30    25    1
    30    25    26   ar
    31    28    27   ar
    32    26    27   ar
    33    26    31    1
    34    27    29    1
