@<TRIPOS>MOLECULE
mol_data/opt/m06hf/geoms/mol2/85-.out
 15 16 0 0 0
SMALL
GASTEIGER

@<TRIPOS>ATOM
      1 C          -0.0004   -0.0034    0.0000 C.ar    1  LIG1        0.1605
      2 N           1.3287    0.0337   -0.0002 N.ar    1  LIG1       -0.1339
      3 C           1.1107    2.2813    0.0000 C.ar    1  LIG1        0.2098
      4 N          -0.7912    1.0680    0.0002 N.ar    1  LIG1       -0.1339
      5 N           1.8969    1.2020   -0.0002 N.ar    1  LIG1       -0.1253
      6 N          -0.2267    2.2364    0.0002 N.ar    1  LIG1       -0.1253
      7 H          -0.4732   -0.9740   -0.0001 H       1  LIG1        0.1085
      8 C           1.7518    3.5970    0.0000 C.ar    1  LIG1        0.0598
      9 C           1.1239    4.8101    0.0002 C.ar    1  LIG1       -0.0438
     10 C           2.0537    5.8938    0.0005 C.ar    1  LIG1       -0.0540
     11 C           3.3472    5.4611    0.0007 C.ar    1  LIG1       -0.0236
     12 S           3.4692    3.7484   -0.0006 S.2     1  LIG1       -0.0934
     13 H           4.2428    6.0612    0.0011 H       1  LIG1        0.0693
     14 H           0.0486    4.9077    0.0002 H       1  LIG1        0.0630
     15 H           1.7696    6.9350    0.0009 H       1  LIG1        0.0623
@<TRIPOS>BOND
     1    12     8   ar
     2    12    11   ar
     3     2     5   ar
     4     2     1   ar
     5     5     3   ar
     6     7     1    1
     7     1     4   ar
     8     3     8    1
     9     3     6   ar
    10     8     9   ar
    11     9    14    1
    12     9    10   ar
    13     4     6   ar
    14    10    11   ar
    15    10    15    1
    16    11    13    1
