@<TRIPOS>MOLECULE
mol_data/opt/m06hf/geoms/mol2/85-13-.out
 23 25 0 0 0
SMALL
GASTEIGER

@<TRIPOS>ATOM
      1 C          -0.0739   -0.0372   -0.1807 C.ar    1  LIG1        0.1605
      2 N           1.2371    0.0126   -0.3932 N.ar    1  LIG1       -0.1339
      3 C           1.0501    2.2387   -0.0589 C.ar    1  LIG1        0.2098
      4 N          -0.8414    1.0179    0.0909 N.ar    1  LIG1       -0.1339
      5 N           1.8125    1.1764   -0.3316 N.ar    1  LIG1       -0.1253
      6 N          -0.2709    2.1809    0.1536 N.ar    1  LIG1       -0.1253
      7 H          -0.5533   -1.0032   -0.2316 H       1  LIG1        0.1085
      8 C           1.6990    3.5452    0.0145 C.ar    1  LIG1        0.0604
      9 C           1.1048    4.7412    0.3015 C.ar    1  LIG1       -0.0432
     10 C           2.0378    5.8177    0.3231 C.ar    1  LIG1       -0.0448
     11 C           3.3146    5.4125    0.0409 C.ar    1  LIG1        0.0361
     12 S           3.3940    3.7122   -0.2727 S.2     1  LIG1       -0.0836
     13 H           0.0476    4.8288    0.5049 H       1  LIG1        0.0630
     14 H           1.7877    6.8398    0.5641 H       1  LIG1        0.0630
     15 C           4.5126    6.2467   -0.0320 C.ar    1  LIG1        0.0531
     16 C           4.6681    7.5462   -0.4668 C.ar    1  LIG1       -0.0359
     17 C           6.0422    7.8762   -0.3266 C.ar    1  LIG1       -0.0438
     18 C           6.6766    6.7678    0.1843 C.ar    1  LIG1        0.0022
     19 N           5.7446    5.7893    0.3541 N.ar    1  LIG1       -0.3603
     20 H           5.9139    4.8861    0.7688 H       1  LIG1        0.1653
     21 H           7.7086    6.6024    0.4409 H       1  LIG1        0.0807
     22 H           3.8820    8.1642   -0.8672 H       1  LIG1        0.0639
     23 H           6.5121    8.8111   -0.5799 H       1  LIG1        0.0633
@<TRIPOS>BOND
     1    22    16    1
     2    23    17    1
     3    16    17   ar
     4    16    15   ar
     5     2     5   ar
     6     2     1   ar
     7     5     3   ar
     8    17    18   ar
     9    12     8   ar
    10    12    11   ar
    11     7     1    1
    12     1     4   ar
    13     3     8    1
    14     3     6   ar
    15    15    11    1
    16    15    19   ar
    17     8     9   ar
    18    11    10   ar
    19     4     6   ar
    20    18    19   ar
    21    18    21    1
    22     9    10   ar
    23     9    13    1
    24    10    14    1
    25    19    20    1
