@<TRIPOS>MOLECULE
mol_data/opt/m06hf/geoms/mol2/85-134-.out
 33 36 0 0 0
SMALL
GASTEIGER

@<TRIPOS>ATOM
      1 C          -0.0095   -0.0880   -0.6432 C.ar    1  LIG1        0.1605
      2 N           1.3124    0.0014   -0.7518 N.ar    1  LIG1       -0.1339
      3 C           1.0533    2.1820   -0.2224 C.ar    1  LIG1        0.2098
      4 N          -0.8166    0.9249   -0.3323 N.ar    1  LIG1       -0.1339
      5 N           1.8559    1.1614   -0.5370 N.ar    1  LIG1       -0.1253
      6 N          -0.2773    2.0850   -0.1167 N.ar    1  LIG1       -0.1253
      7 H          -0.4621   -1.0516   -0.8221 H       1  LIG1        0.1085
      8 C           1.6704    3.4843    0.0207 C.ar    1  LIG1        0.0604
      9 C           1.0281    4.6453    0.3501 C.ar    1  LIG1       -0.0432
     10 C           1.9370    5.7247    0.5407 C.ar    1  LIG1       -0.0448
     11 C           3.2427    5.3527    0.3437 C.ar    1  LIG1        0.0362
     12 S           3.3797    3.6885   -0.0891 S.2     1  LIG1       -0.0836
     13 H          -0.0440    4.7049    0.4649 H       1  LIG1        0.0630
     14 H           1.6433    6.7172    0.8499 H       1  LIG1        0.0630
     15 C           4.4380    6.1862    0.4475 C.ar    1  LIG1        0.0536
     16 C           5.7244    5.8858    0.8486 C.ar    1  LIG1       -0.0353
     17 C           6.4835    7.0796    0.7525 C.ar    1  LIG1       -0.0358
     18 C           5.6395    8.0733    0.2963 C.ar    1  LIG1        0.0469
     19 N           4.4043    7.5157    0.1270 N.ar    1  LIG1       -0.3537
     20 H           3.6303    7.9712   -0.3319 H       1  LIG1        0.1659
     21 H           6.0584    4.9256    1.2057 H       1  LIG1        0.0639
     22 H           7.5161    7.2170    1.0267 H       1  LIG1        0.0639
     23 C           4.9095   10.4630    0.2588 C.ar    1  LIG1       -0.0526
     24 C           5.1514   11.8025   -0.0280 C.ar    1  LIG1       -0.0611
     25 C           5.8915    9.4990    0.0107 C.ar    1  LIG1       -0.0017
     26 C           6.3813   12.1956   -0.5490 C.ar    1  LIG1       -0.0617
     27 H           4.3848   12.5404    0.1695 H       1  LIG1        0.0618
     28 C           7.1234    9.8991   -0.5148 C.ar    1  LIG1       -0.0526
     29 C           7.3682   11.2406   -0.7851 C.ar    1  LIG1       -0.0611
     30 H           7.8748    9.1498   -0.7283 H       1  LIG1        0.0624
     31 H           6.5705   13.2382   -0.7673 H       1  LIG1        0.0618
     32 H           3.9674   10.1675    0.7050 H       1  LIG1        0.0624
     33 H           8.3251   11.5393   -1.1929 H       1  LIG1        0.0618
@<TRIPOS>BOND
     1    33    29    1
     2     7     1    1
     3    29    26   ar
     4    29    28   ar
     5    31    26    1
     6     2     1   ar
     7     2     5   ar
     8    30    28    1
     9     1     4   ar
    10    26    24   ar
    11     5     3   ar
    12    28    25   ar
    13     4     6   ar
    14    20    19    1
    15     3     6   ar
    16     3     8    1
    17    12     8   ar
    18    12    11   ar
    19    24    27    1
    20    24    23   ar
    21    25    23   ar
    22    25    18    1
    23     8     9   ar
    24    19    18   ar
    25    19    15   ar
    26    23    32    1
    27    18    17   ar
    28    11    15    1
    29    11    10   ar
    30     9    13    1
    31     9    10   ar
    32    15    16   ar
    33    10    14    1
    34    17    16   ar
    35    17    22    1
    36    16    21    1
