@<TRIPOS>MOLECULE
mol_data/opt/m06hf/geoms/mol2/85-138.out
 29 32 0 0 0
SMALL
GASTEIGER

@<TRIPOS>ATOM
      1 C          -0.0294   -0.1010   -0.0007 C.ar    1  LIG1        0.1605
      2 N           1.2992   -0.0422   -0.0010 N.ar    1  LIG1       -0.1339
      3 C           1.0432    2.2011   -0.0001 C.ar    1  LIG1        0.2098
      4 N          -0.8378    0.9579   -0.0001 N.ar    1  LIG1       -0.1339
      5 N           1.8473    1.1353   -0.0007 N.ar    1  LIG1       -0.1253
      6 N          -0.2936    2.1354    0.0002 N.ar    1  LIG1       -0.1253
      7 H          -0.4864   -1.0789   -0.0010 H       1  LIG1        0.1085
      8 C           1.6669    3.5233    0.0002 C.ar    1  LIG1        0.0604
      9 C           1.0313    4.7323    0.0009 C.ar    1  LIG1       -0.0432
     10 C           1.9497    5.8205    0.0011 C.ar    1  LIG1       -0.0448
     11 C           3.2568    5.4057    0.0006 C.ar    1  LIG1        0.0362
     12 S           3.3841    3.6842   -0.0004 S.2     1  LIG1       -0.0836
     13 H          -0.0444    4.8252    0.0012 H       1  LIG1        0.0630
     14 H           1.6406    6.8554    0.0018 H       1  LIG1        0.0630
     15 C           4.4703    6.2205    0.0008 C.ar    1  LIG1        0.0537
     16 C           5.8063    5.8389    0.0010 C.ar    1  LIG1       -0.0352
     17 C           6.5839    7.0150    0.0011 C.ar    1  LIG1       -0.0326
     18 C           5.6979    8.0757    0.0010 C.ar    1  LIG1        0.0880
     19 N           4.4292    7.5788    0.0007 N.ar    1  LIG1       -0.3512
     20 H           3.6106    8.1712    0.0005 H       1  LIG1        0.1660
     21 H           6.1695    4.8244    0.0012 H       1  LIG1        0.0639
     22 H           7.6573    7.1012    0.0013 H       1  LIG1        0.0640
     23 C           5.9228    9.5121    0.0010 C.ar    1  LIG1        0.2193
     24 N           7.1854    9.9603    0.0011 N.ar    1  LIG1       -0.1243
     25 C           6.2848   12.0266    0.0009 C.ar    1  LIG1        0.1605
     26 N           4.8452   10.3019    0.0008 N.ar    1  LIG1       -0.1243
     27 N           7.3649   11.2430    0.0011 N.ar    1  LIG1       -0.1338
     28 N           5.0306   11.5885    0.0008 N.ar    1  LIG1       -0.1338
     29 H           6.4427   13.0942    0.0010 H       1  LIG1        0.1085
@<TRIPOS>BOND
     1     2     5   ar
     2     2     1   ar
     3     7     1    1
     4     5     3   ar
     5     1     4   ar
     6    12     8   ar
     7    12    11   ar
     8     3     6   ar
     9     3     8    1
    10     4     6   ar
    11     8     9   ar
    12    20    19    1
    13    11    15    1
    14    11    10   ar
    15    19    15   ar
    16    19    18   ar
    17    15    16   ar
    18    28    26   ar
    19    28    25   ar
    20    26    23   ar
    21     9    10   ar
    22     9    13    1
    23    25    29    1
    24    25    27   ar
    25    18    23    1
    26    18    17   ar
    27    23    24   ar
    28    16    17   ar
    29    16    21    1
    30    27    24   ar
    31    17    22    1
    32    10    14    1
