@<TRIPOS>MOLECULE
mol_data/opt/m06hf/geoms/mol2/85-13.out
 23 25 0 0 0
SMALL
GASTEIGER

@<TRIPOS>ATOM
      1 C          -0.0743   -0.0314   -0.1981 C.ar    1  LIG1        0.1605
      2 N           1.2391    0.0146   -0.3961 N.ar    1  LIG1       -0.1339
      3 C           1.0579    2.2393   -0.0527 C.ar    1  LIG1        0.2098
      4 N          -0.8406    1.0255    0.0690 N.ar    1  LIG1       -0.1339
      5 N           1.8190    1.1752   -0.3220 N.ar    1  LIG1       -0.1253
      6 N          -0.2655    2.1855    0.1433 N.ar    1  LIG1       -0.1253
      7 H          -0.5564   -0.9954   -0.2590 H       1  LIG1        0.1085
      8 C           1.7082    3.5450    0.0339 C.ar    1  LIG1        0.0604
      9 C           1.1042    4.7369    0.3192 C.ar    1  LIG1       -0.0432
     10 C           2.0333    5.8154    0.3498 C.ar    1  LIG1       -0.0448
     11 C           3.3159    5.4117    0.0789 C.ar    1  LIG1        0.0361
     12 S           3.4053    3.7172   -0.2299 S.2     1  LIG1       -0.0836
     13 H           0.0451    4.8201    0.5145 H       1  LIG1        0.0630
     14 H           1.7724    6.8326    0.6037 H       1  LIG1        0.0630
     15 C           4.5212    6.2374    0.0231 C.ar    1  LIG1        0.0531
     16 C           5.8234    5.9707    0.3918 C.ar    1  LIG1       -0.0359
     17 C           6.5807    7.1457    0.1405 C.ar    1  LIG1       -0.0438
     18 C           5.7172    8.0845   -0.3740 C.ar    1  LIG1        0.0022
     19 N           4.4766    7.5256   -0.4367 N.ar    1  LIG1       -0.3603
     20 H           3.6559    7.9552   -0.8323 H       1  LIG1        0.1653
     21 H           5.8904    9.0946   -0.7014 H       1  LIG1        0.0807
     22 H           6.1737    5.0458    0.8198 H       1  LIG1        0.0639
     23 H           7.6320    7.2886    0.3222 H       1  LIG1        0.0633
@<TRIPOS>BOND
     1    20    19    1
     2    21    18    1
     3    19    18   ar
     4    19    15   ar
     5     2     5   ar
     6     2     1   ar
     7    18    17   ar
     8     5     3   ar
     9     7     1    1
    10    12     8   ar
    11    12    11   ar
    12     1     4   ar
    13     3     8    1
    14     3     6   ar
    15    15    11    1
    16    15    16   ar
    17     8     9   ar
    18     4     6   ar
    19    11    10   ar
    20    17    23    1
    21    17    16   ar
    22     9    10   ar
    23     9    13    1
    24    10    14    1
    25    16    22    1
