@<TRIPOS>MOLECULE
mol_data/opt/m06hf/geoms/mol2/85-4-.out
 25 27 0 0 0
SMALL
GASTEIGER

@<TRIPOS>ATOM
      1 C          -0.1447   -0.0126   -0.3216 C.ar    1  LIG1        0.1605
      2 N           1.1579    0.0333   -0.5820 N.ar    1  LIG1       -0.1339
      3 C           1.0272    2.2269   -0.0613 C.ar    1  LIG1        0.2098
      4 N          -0.8801    1.0280    0.0681 N.ar    1  LIG1       -0.1339
      5 N           1.7582    1.1781   -0.4487 N.ar    1  LIG1       -0.1253
      6 N          -0.2845    2.1724    0.2016 N.ar    1  LIG1       -0.1253
      7 H          -0.6445   -0.9628   -0.4344 H       1  LIG1        0.1085
      8 C           1.6996    3.5174    0.0814 C.ar    1  LIG1        0.0604
      9 C           1.1271    4.6950    0.4728 C.ar    1  LIG1       -0.0432
     10 C           2.0673    5.7644    0.5005 C.ar    1  LIG1       -0.0462
     11 C           3.3260    5.3725    0.1284 C.ar    1  LIG1        0.0200
     12 S           3.3801    3.6914   -0.2644 S.2     1  LIG1       -0.0850
     13 H           0.0819    4.7745    0.7336 H       1  LIG1        0.0630
     14 H           1.8320    6.7724    0.8091 H       1  LIG1        0.0629
     15 C           4.4324    7.5188   -0.4672 C.ar    1  LIG1       -0.0535
     16 C           5.5588    8.3290   -0.5539 C.ar    1  LIG1       -0.0612
     17 C           4.5385    6.2166    0.0303 C.ar    1  LIG1       -0.0113
     18 C           6.8025    7.8426   -0.1573 C.ar    1  LIG1       -0.0617
     19 H           5.4676    9.3350   -0.9419 H       1  LIG1        0.0618
     20 C           5.7884    5.7328    0.4278 C.ar    1  LIG1       -0.0535
     21 C           6.9146    6.5432    0.3305 C.ar    1  LIG1       -0.0612
     22 H           5.8725    4.7307    0.8300 H       1  LIG1        0.0624
     23 H           7.6795    8.4720   -0.2310 H       1  LIG1        0.0618
     24 H           3.4697    7.8812   -0.8042 H       1  LIG1        0.0624
     25 H           7.8777    6.1614    0.6427 H       1  LIG1        0.0618
@<TRIPOS>BOND
     1    19    16    1
     2    24    15    1
     3     2     5   ar
     4     2     1   ar
     5    16    15   ar
     6    16    18   ar
     7    15    17   ar
     8     5     3   ar
     9     7     1    1
    10     1     4   ar
    11    12     8   ar
    12    12    11   ar
    13    23    18    1
    14    18    21   ar
    15     3     8    1
    16     3     6   ar
    17    17    11    1
    18    17    20   ar
    19     4     6   ar
    20     8     9   ar
    21    11    10   ar
    22    21    20   ar
    23    21    25    1
    24    20    22    1
    25     9    10   ar
    26     9    13    1
    27    10    14    1
