@<TRIPOS>MOLECULE
mol_data/opt/m06hf/geoms/mol2/85-5.out
 22 24 0 0 0
SMALL
GASTEIGER

@<TRIPOS>ATOM
      1 C          -0.0730   -0.0485   -0.0001 C.ar    1  LIG1        0.1605
      2 N           1.2560   -0.0204   -0.0006 N.ar    1  LIG1       -0.1339
      3 C           1.0549    2.2291    0.0001 C.ar    1  LIG1        0.2098
      4 N          -0.8560    1.0298    0.0004 N.ar    1  LIG1       -0.1339
      5 N           1.8335    1.1432   -0.0005 N.ar    1  LIG1       -0.1253
      6 N          -0.2827    2.1933    0.0005 N.ar    1  LIG1       -0.1253
      7 H          -0.5534   -1.0152   -0.0002 H       1  LIG1        0.1085
      8 C           1.7049    3.5378    0.0002 C.ar    1  LIG1        0.0604
      9 C           1.0890    4.7572    0.0007 C.ar    1  LIG1       -0.0432
     10 C           2.0252    5.8289    0.0006 C.ar    1  LIG1       -0.0457
     11 C           3.3260    5.3945    0.0001 C.ar    1  LIG1        0.0266
     12 S           3.4227    3.6701   -0.0004 S.2     1  LIG1       -0.0845
     13 H           0.0148    4.8681    0.0010 H       1  LIG1        0.0630
     14 H           1.7445    6.8724    0.0010 H       1  LIG1        0.0629
     15 C           4.5450    6.2069   -0.0001 C.ar    1  LIG1        0.0259
     16 C           5.8436    5.7802   -0.0003 C.ar    1  LIG1       -0.0464
     17 C           6.7823    6.8598   -0.0005 C.ar    1  LIG1       -0.0541
     18 C           6.1720    8.0754   -0.0004 C.ar    1  LIG1       -0.0237
     19 S           4.4597    7.9348   -0.0003 S.2     1  LIG1       -0.0961
     20 H           6.6312    9.0508   -0.0004 H       1  LIG1        0.0693
     21 H           6.1284    4.7372   -0.0003 H       1  LIG1        0.0629
     22 H           7.8533    6.7266   -0.0006 H       1  LIG1        0.0623
@<TRIPOS>BOND
     1    22    17    1
     2     2     5   ar
     3     2     1   ar
     4    17    18   ar
     5    17    16   ar
     6     5     3   ar
     7    20    18    1
     8    12    11   ar
     9    12     8   ar
    10    18    19   ar
    11    16    21    1
    12    16    15   ar
    13    19    15   ar
    14     7     1    1
    15    15    11    1
    16     1     4   ar
    17    11    10   ar
    18     3     8    1
    19     3     6   ar
    20     8     9   ar
    21     4     6   ar
    22    10     9   ar
    23    10    14    1
    24     9    13    1
