@<TRIPOS>MOLECULE
mol_data/opt/m06hf/geoms/mol2/85-5-4.out
 32 35 0 0 0
SMALL
GASTEIGER

@<TRIPOS>ATOM
      1 C          -0.3517    0.0651   -0.6582 C.ar    1  LIG1        0.1605
      2 N           0.8976    0.1658   -1.1013 N.ar    1  LIG1       -0.1339
      3 C           0.8866    2.2361   -0.1990 C.ar    1  LIG1        0.2098
      4 N          -1.0015    1.0191    0.0073 N.ar    1  LIG1       -0.1339
      5 N           1.5311    1.2757   -0.8665 N.ar    1  LIG1       -0.1253
      6 N          -0.3721    2.1284    0.2433 N.ar    1  LIG1       -0.1253
      7 H          -0.8799   -0.8559   -0.8524 H       1  LIG1        0.1085
      8 C           1.5995    3.4853    0.0646 C.ar    1  LIG1        0.0604
      9 C           1.1103    4.5777    0.7248 C.ar    1  LIG1       -0.0432
     10 C           2.0745    5.6208    0.8210 C.ar    1  LIG1       -0.0457
     11 C           3.2630    5.2939    0.2217 C.ar    1  LIG1        0.0266
     12 S           3.2243    3.7078   -0.4641 S.2     1  LIG1       -0.0845
     13 H           0.1093    4.6123    1.1283 H       1  LIG1        0.0630
     14 H           1.9139    6.5596    1.3296 H       1  LIG1        0.0629
     15 C           4.4465    6.1526    0.1095 C.ar    1  LIG1        0.0265
     16 C           4.4539    7.5012   -0.1066 C.ar    1  LIG1       -0.0458
     17 C           5.7740    8.0452   -0.1481 C.ar    1  LIG1       -0.0463
     18 C           6.7456    7.1007    0.0247 C.ar    1  LIG1        0.0199
     19 S           6.0547    5.5316    0.2539 S.2     1  LIG1       -0.0877
     20 H           3.5501    8.0754   -0.2484 H       1  LIG1        0.0629
     21 H           5.9938    9.0943   -0.2834 H       1  LIG1        0.0629
     22 C           9.0423    6.5885    0.8896 C.ar    1  LIG1       -0.0535
     23 C          10.4175    6.7957    0.8726 C.ar    1  LIG1       -0.0612
     24 C           8.2129    7.2998    0.0181 C.ar    1  LIG1       -0.0113
     25 C          10.9763    7.7200   -0.0060 C.ar    1  LIG1       -0.0617
     26 H          11.0508    6.2414    1.5527 H       1  LIG1        0.0618
     27 C           8.7802    8.2179   -0.8705 C.ar    1  LIG1       -0.0535
     28 C          10.1539    8.4315   -0.8765 C.ar    1  LIG1       -0.0612
     29 H           8.1420    8.7440   -1.5687 H       1  LIG1        0.0624
     30 H          12.0460    7.8818   -0.0150 H       1  LIG1        0.0618
     31 H           8.6077    5.8879    1.5923 H       1  LIG1        0.0624
     32 H          10.5828    9.1442   -1.5687 H       1  LIG1        0.0618
@<TRIPOS>BOND
     1    32    28    1
     2    29    27    1
     3     2     5   ar
     4     2     1   ar
     5    28    27   ar
     6    28    25   ar
     7    27    24   ar
     8     5     3   ar
     9     7     1    1
    10     1     4   ar
    11    12     8   ar
    12    12    11   ar
    13    21    17    1
    14    20    16    1
    15     3     8    1
    16     3     6   ar
    17    17    16   ar
    18    17    18   ar
    19    16    15   ar
    20    30    25    1
    21    25    23   ar
    22     4     6   ar
    23    24    18    1
    24    24    22   ar
    25    18    19   ar
    26     8     9   ar
    27    15    11    1
    28    15    19   ar
    29    11    10   ar
    30     9    10   ar
    31     9    13    1
    32    10    14    1
    33    23    22   ar
    34    23    26    1
    35    22    31    1
