@<TRIPOS>MOLECULE
mol_data/opt/m06hf/geoms/mol2/85.out
 15 16 0 0 0
SMALL
GASTEIGER

@<TRIPOS>ATOM
      1 C          -0.0028   -0.0020    0.0001 C.ar    1  LIG1        0.1605
      2 N           1.3287    0.0074   -0.0003 N.ar    1  LIG1       -0.1339
      3 C           1.1595    2.2569   -0.0001 C.ar    1  LIG1        0.2098
      4 N          -0.7700    1.0841    0.0004 N.ar    1  LIG1       -0.1339
      5 N           1.9253    1.1597   -0.0004 N.ar    1  LIG1       -0.1253
      6 N          -0.1757    2.2390    0.0003 N.ar    1  LIG1       -0.1253
      7 H          -0.4962   -0.9623    0.0001 H       1  LIG1        0.1085
      8 C           1.8281    3.5585   -0.0002 C.ar    1  LIG1        0.0598
      9 C           3.1752    3.7851   -0.0005 C.ar    1  LIG1       -0.0438
     10 C           3.4840    5.1785   -0.0007 C.ar    1  LIG1       -0.0540
     11 C           2.3610    5.9532   -0.0005 C.ar    1  LIG1       -0.0236
     12 S           0.9182    5.0235    0.0003 S.2     1  LIG1       -0.0934
     13 H           2.3032    7.0297   -0.0006 H       1  LIG1        0.0693
     14 H           3.8986    2.9835   -0.0007 H       1  LIG1        0.0630
     15 H           4.4872    5.5764   -0.0010 H       1  LIG1        0.0623
@<TRIPOS>BOND
     1    15    10    1
     2    14     9    1
     3    10     9   ar
     4    10    11   ar
     5    13    11    1
     6     9     8   ar
     7    11    12   ar
     8     5     2   ar
     9     5     3   ar
    10     2     1   ar
    11     8     3    1
    12     8    12   ar
    13     3     6   ar
    14     1     7    1
    15     1     4   ar
    16     6     4   ar
