@<TRIPOS>MOLECULE
mol_data/opt/m06hf/geoms/mol2/85124.out
 32 35 0 0 0
SMALL
GASTEIGER

@<TRIPOS>ATOM
      1 C           0.0634   -0.1324    0.0000 C.ar    1  LIG1        0.1605
      2 N           1.3956   -0.1152   -0.0003 N.ar    1  LIG1       -0.1339
      3 C           1.2138    2.1334   -0.0002 C.ar    1  LIG1        0.2099
      4 N          -0.7094    0.9491    0.0002 N.ar    1  LIG1       -0.1339
      5 N           1.9856    1.0402   -0.0004 N.ar    1  LIG1       -0.1253
      6 N          -0.1220    2.1078    0.0001 N.ar    1  LIG1       -0.1253
      7 H          -0.4226   -1.0962    0.0002 H       1  LIG1        0.1085
      8 C           1.8712    3.4382   -0.0005 C.ar    1  LIG1        0.0605
      9 C           3.2189    3.6738   -0.0011 C.ar    1  LIG1       -0.0431
     10 C           3.5190    5.0633   -0.0010 C.ar    1  LIG1       -0.0433
     11 C           2.3867    5.8374   -0.0004 C.ar    1  LIG1        0.0551
     12 S           0.9466    4.8922   -0.0005 S.2     1  LIG1       -0.0820
     13 H           3.9479    2.8771   -0.0013 H       1  LIG1        0.0630
     14 H           4.5193    5.4696   -0.0012 H       1  LIG1        0.0630
     15 C           2.2997    7.2904    0.0001 C.ar    1  LIG1        0.1422
     16 C           3.2274    8.2875    0.0003 C.ar    1  LIG1       -0.0147
     17 C           2.4879    9.5133    0.0006 C.ar    1  LIG1       -0.0152
     18 C           1.1682    9.1690    0.0009 C.ar    1  LIG1        0.1357
     19 O           1.0578    7.8216    0.0005 O.2     1  LIG1       -0.4543
     20 H           4.2975    8.1668    0.0002 H       1  LIG1        0.0656
     21 H           2.8916   10.5109    0.0008 H       1  LIG1        0.0656
     22 C          -0.0573   11.3364    0.0017 C.ar    1  LIG1       -0.0511
     23 C          -1.2452   12.0565    0.0023 C.ar    1  LIG1       -0.0611
     24 C          -0.0848    9.9391    0.0015 C.ar    1  LIG1        0.0173
     25 C          -2.4693   11.3900    0.0025 C.ar    1  LIG1       -0.0617
     26 H          -1.2157   13.1381    0.0025 H       1  LIG1        0.0618
     27 C          -1.3123    9.2714    0.0017 C.ar    1  LIG1       -0.0511
     28 C          -2.4979    9.9980    0.0023 C.ar    1  LIG1       -0.0611
     29 H          -1.3300    8.1896    0.0015 H       1  LIG1        0.0625
     30 H          -3.3933   11.9529    0.0030 H       1  LIG1        0.0618
     31 H           0.8898   11.8602    0.0015 H       1  LIG1        0.0625
     32 H          -3.4445    9.4739    0.0025 H       1  LIG1        0.0618
@<TRIPOS>BOND
     1    13     9    1
     2    14    10    1
     3     9    10   ar
     4     9     8   ar
     5    10    11   ar
     6     8    12   ar
     7     8     3    1
     8    12    11   ar
     9     5     2   ar
    10     5     3   ar
    11    11    15    1
    12     2     1   ar
    13     3     6   ar
    14     1     7    1
    15     1     4   ar
    16    15    16   ar
    17    15    19   ar
    18     6     4   ar
    19    20    16    1
    20    16    17   ar
    21    19    18   ar
    22    17    21    1
    23    17    18   ar
    24    18    24    1
    25    24    22   ar
    26    24    27   ar
    27    31    22    1
    28    29    27    1
    29    22    23   ar
    30    27    28   ar
    31    23    26    1
    32    23    25   ar
    33    28    32    1
    34    28    25   ar
    35    25    30    1
