@<TRIPOS>MOLECULE
mol_data/opt/m06hf/geoms/mol2/85125.out
 29 32 0 0 0
SMALL
GASTEIGER

@<TRIPOS>ATOM
      1 C           0.0320   -0.1012    0.0000 C.ar    1  LIG1        0.1605
      2 N           1.3642   -0.0855   -0.0000 N.ar    1  LIG1       -0.1339
      3 C           1.1844    2.1634   -0.0001 C.ar    1  LIG1        0.2099
      4 N          -0.7397    0.9811    0.0000 N.ar    1  LIG1       -0.1339
      5 N           1.9551    1.0695   -0.0001 N.ar    1  LIG1       -0.1253
      6 N          -0.1513    2.1393   -0.0001 N.ar    1  LIG1       -0.1253
      7 H          -0.4550   -1.0645    0.0001 H       1  LIG1        0.1085
      8 C           1.8447    3.4669   -0.0002 C.ar    1  LIG1        0.0605
      9 C           3.1935    3.6969   -0.0004 C.ar    1  LIG1       -0.0431
     10 C           3.4985    5.0848   -0.0004 C.ar    1  LIG1       -0.0433
     11 C           2.3685    5.8630   -0.0003 C.ar    1  LIG1        0.0551
     12 S           0.9250    4.9236   -0.0002 S.2     1  LIG1       -0.0820
     13 H           3.9194    2.8974   -0.0004 H       1  LIG1        0.0630
     14 H           4.5003    5.4874   -0.0005 H       1  LIG1        0.0630
     15 C           2.2947    7.3164   -0.0002 C.ar    1  LIG1        0.1423
     16 C           3.2348    8.3023   -0.0000 C.ar    1  LIG1       -0.0147
     17 C           2.5144    9.5394    0.0000 C.ar    1  LIG1       -0.0147
     18 C           1.1919    9.2086   -0.0000 C.ar    1  LIG1        0.1422
     19 O           1.0584    7.8643   -0.0001 O.2     1  LIG1       -0.4538
     20 H           4.3030    8.1669   -0.0000 H       1  LIG1        0.0656
     21 H           2.9234   10.5349    0.0001 H       1  LIG1        0.0656
     22 C          -0.0368    9.9922    0.0001 C.ar    1  LIG1        0.0544
     23 C          -0.1628   11.3530   -0.0000 C.ar    1  LIG1       -0.0440
     24 C          -1.5298   11.7731    0.0002 C.ar    1  LIG1       -0.0540
     25 C          -2.3948   10.7217    0.0005 C.ar    1  LIG1       -0.0236
     26 S          -1.5766    9.2097    0.0004 S.2     1  LIG1       -0.0936
     27 H          -3.4721   10.7496    0.0007 H       1  LIG1        0.0693
     28 H           0.6804   12.0276   -0.0003 H       1  LIG1        0.0630
     29 H          -1.8441   12.8057    0.0001 H       1  LIG1        0.0623
@<TRIPOS>BOND
     1    14    10    1
     2    13     9    1
     3    10     9   ar
     4    10    11   ar
     5     9     8   ar
     6    28    23    1
     7    11    12   ar
     8    11    15    1
     9    12     8   ar
    10     8     3    1
    11    15    19   ar
    12    15    16   ar
    13    19    18   ar
    14     3     5   ar
    15     3     6   ar
    16     5     2   ar
    17     6     4   ar
    18    16    20    1
    19    16    17   ar
    20    23    22   ar
    21    23    24   ar
    22     2     1   ar
    23    18    17   ar
    24    18    22    1
    25     4     1   ar
    26    17    21    1
    27     1     7    1
    28    22    26   ar
    29    29    24    1
    30    24    25   ar
    31    26    25   ar
    32    25    27    1
