@<TRIPOS>MOLECULE
mol_data/opt/m06hf/geoms/mol2/8512.out
 22 24 0 0 0
SMALL
GASTEIGER

@<TRIPOS>ATOM
      1 C          -0.0002   -0.0537   -0.0001 C.ar    1  LIG1        0.1605
      2 N           1.3320   -0.0418   -0.0005 N.ar    1  LIG1       -0.1339
      3 C           1.1589    2.2075   -0.0002 C.ar    1  LIG1        0.2099
      4 N          -0.7690    1.0309    0.0003 N.ar    1  LIG1       -0.1339
      5 N           1.9265    1.1116   -0.0005 N.ar    1  LIG1       -0.1253
      6 N          -0.1771    2.1872    0.0003 N.ar    1  LIG1       -0.1253
      7 H          -0.4910   -1.0153   -0.0001 H       1  LIG1        0.1085
      8 C           1.8212    3.5102   -0.0001 C.ar    1  LIG1        0.0605
      9 C           3.1696    3.7407   -0.0004 C.ar    1  LIG1       -0.0431
     10 C           3.4740    5.1294   -0.0004 C.ar    1  LIG1       -0.0433
     11 C           2.3445    5.9072   -0.0000 C.ar    1  LIG1        0.0551
     12 S           0.9021    4.9674    0.0005 S.2     1  LIG1       -0.0820
     13 H           3.8974    2.9427   -0.0008 H       1  LIG1        0.0630
     14 H           4.4758    5.5319   -0.0008 H       1  LIG1        0.0630
     15 C           2.2699    7.3630    0.0000 C.ar    1  LIG1        0.1413
     16 C           3.2116    8.3457   -0.0001 C.ar    1  LIG1       -0.0154
     17 C           2.4872    9.5857    0.0002 C.ar    1  LIG1       -0.0233
     18 C           1.1738    9.2498    0.0002 C.ar    1  LIG1        0.0926
     19 O           1.0344    7.9094    0.0001 O.2     1  LIG1       -0.4624
     20 H           0.2653    9.8248    0.0004 H       1  LIG1        0.1029
     21 H           4.2795    8.2102   -0.0002 H       1  LIG1        0.0655
     22 H           2.8953   10.5814    0.0003 H       1  LIG1        0.0649
@<TRIPOS>BOND
     1    13     9    1
     2    14    10    1
     3     5     2   ar
     4     5     3   ar
     5     2     1   ar
     6     9    10   ar
     7     9     8   ar
     8    10    11   ar
     9    21    16    1
    10     3     8    1
    11     3     6   ar
    12     8    12   ar
    13    16    15   ar
    14    16    17   ar
    15     1     7    1
    16     1     4   ar
    17    11    15    1
    18    11    12   ar
    19    15    19   ar
    20    19    18   ar
    21    17    18   ar
    22    17    22    1
    23    18    20    1
    24     6     4   ar
