@<TRIPOS>MOLECULE
mol_data/opt/m06hf/geoms/mol2/8513-.out
 23 25 0 0 0
SMALL
GASTEIGER

@<TRIPOS>ATOM
      1 C           0.0196   -0.0783    0.1983 C.ar    1  LIG1        0.1605
      2 N           1.3245   -0.0574   -0.0706 N.ar    1  LIG1       -0.1339
      3 C           1.1573    2.1897    0.0524 C.ar    1  LIG1        0.2098
      4 N          -0.7311    1.0002    0.3978 N.ar    1  LIG1       -0.1339
      5 N           1.9077    1.0986   -0.1452 N.ar    1  LIG1       -0.1253
      6 N          -0.1503    2.1603    0.3235 N.ar    1  LIG1       -0.1253
      7 H          -0.4626   -1.0422    0.2592 H       1  LIG1        0.1085
      8 C           1.8119    3.4932   -0.0341 C.ar    1  LIG1        0.0604
      9 C           3.1277    3.7250   -0.3205 C.ar    1  LIG1       -0.0432
     10 C           3.4331    5.1153   -0.3512 C.ar    1  LIG1       -0.0448
     11 C           2.3411    5.8992   -0.0788 C.ar    1  LIG1        0.0361
     12 S           0.9320    4.9543    0.2311 S.2     1  LIG1       -0.0836
     13 H           3.8294    2.9276   -0.5166 H       1  LIG1        0.0630
     14 H           4.4032    5.5169   -0.6059 H       1  LIG1        0.0630
     15 C           2.2787    7.3590   -0.0227 C.ar    1  LIG1        0.0531
     16 C           1.2835    8.2408   -0.3896 C.ar    1  LIG1       -0.0359
     17 C           1.7695    9.5516   -0.1383 C.ar    1  LIG1       -0.0438
     18 C           3.0393    9.4239    0.3744 C.ar    1  LIG1        0.0022
     19 N           3.3367    8.0959    0.4359 N.ar    1  LIG1       -0.3603
     20 H           4.1732    7.6970    0.8304 H       1  LIG1        0.1653
     21 H           3.7440   10.1683    0.7010 H       1  LIG1        0.0807
     22 H           0.3329    7.9662   -0.8165 H       1  LIG1        0.0639
     23 H           1.2527   10.4784   -0.3188 H       1  LIG1        0.0633
@<TRIPOS>BOND
     1    22    16    1
     2    14    10    1
     3    13     9    1
     4    16    17   ar
     5    16    15   ar
     6    10     9   ar
     7    10    11   ar
     8     9     8   ar
     9    23    17    1
    10     5     2   ar
    11     5     3   ar
    12    17    18   ar
    13    11    15    1
    14    11    12   ar
    15     2     1   ar
    16     8     3    1
    17     8    12   ar
    18    15    19   ar
    19     3     6   ar
    20     1     7    1
    21     1     4   ar
    22     6     4   ar
    23    18    19   ar
    24    18    21    1
    25    19    20    1
