@<TRIPOS>MOLECULE
mol_data/opt/m06hf/geoms/mol2/8513.out
 23 25 0 0 0
SMALL
GASTEIGER

@<TRIPOS>ATOM
      1 C           0.0148   -0.0814    0.1794 C.ar    1  LIG1        0.1605
      2 N           1.3187   -0.0627   -0.0945 N.ar    1  LIG1       -0.1339
      3 C           1.1620    2.1829    0.0584 C.ar    1  LIG1        0.2098
      4 N          -0.7311    0.9974    0.3950 N.ar    1  LIG1       -0.1339
      5 N           1.9074    1.0915   -0.1569 N.ar    1  LIG1       -0.1253
      6 N          -0.1448    2.1557    0.3338 N.ar    1  LIG1       -0.1253
      7 H          -0.4708   -1.0443    0.2303 H       1  LIG1        0.1085
      8 C           1.8180    3.4859   -0.0149 C.ar    1  LIG1        0.0604
      9 C           3.1310    3.7282   -0.3031 C.ar    1  LIG1       -0.0432
     10 C           3.4324    5.1206   -0.3244 C.ar    1  LIG1       -0.0448
     11 C           2.3424    5.8987   -0.0405 C.ar    1  LIG1        0.0361
     12 S           0.9351    4.9419    0.2745 S.2     1  LIG1       -0.0836
     13 H           3.8353    2.9351   -0.5076 H       1  LIG1        0.0630
     14 H           4.3999    5.5338   -0.5665 H       1  LIG1        0.0630
     15 C           2.2909    7.3576    0.0331 C.ar    1  LIG1        0.0531
     16 C           3.2382    8.2615    0.4661 C.ar    1  LIG1       -0.0359
     17 C           2.6776    9.5589    0.3273 C.ar    1  LIG1       -0.0438
     18 C           1.4092    9.4015   -0.1814 C.ar    1  LIG1        0.0022
     19 N           1.1850    8.0688   -0.3503 N.ar    1  LIG1       -0.3603
     20 H           0.3603    7.6628   -0.7644 H       1  LIG1        0.1653
     21 H           0.6574   10.1280   -0.4367 H       1  LIG1        0.0807
     22 H           4.2047    8.0033    0.8653 H       1  LIG1        0.0639
     23 H           3.1440   10.4957    0.5800 H       1  LIG1        0.0633
@<TRIPOS>BOND
     1    20    19    1
     2    14    10    1
     3    13     9    1
     4    21    18    1
     5    19    18   ar
     6    19    15   ar
     7    10     9   ar
     8    10    11   ar
     9     9     8   ar
    10    18    17   ar
    11     5     2   ar
    12     5     3   ar
    13     2     1   ar
    14    11    15    1
    15    11    12   ar
    16     8     3    1
    17     8    12   ar
    18    15    16   ar
    19     3     6   ar
    20     1     7    1
    21     1     4   ar
    22    17    16   ar
    23    17    23    1
    24     6     4   ar
    25    16    22    1
