@<TRIPOS>MOLECULE
mol_data/opt/m06hf/geoms/mol2/854-8-.out
 31 34 0 0 0
SMALL
GASTEIGER

@<TRIPOS>ATOM
      1 C           0.0151   -0.1332    0.3782 C.ar    1  LIG1        0.1605
      2 N           1.2887   -0.1308   -0.0112 N.ar    1  LIG1       -0.1339
      3 C           1.1610    2.1176    0.1049 C.ar    1  LIG1        0.2098
      4 N          -0.7017    0.9567    0.6357 N.ar    1  LIG1       -0.1339
      5 N           1.8770    1.0172   -0.1512 N.ar    1  LIG1       -0.1253
      6 N          -0.1158    2.1073    0.4955 N.ar    1  LIG1       -0.1253
      7 H          -0.4704   -1.0901    0.4943 H       1  LIG1        0.1085
      8 C           1.8152    3.4168   -0.0542 C.ar    1  LIG1        0.0604
      9 C           3.1067    3.6417   -0.4408 C.ar    1  LIG1       -0.0432
     10 C           3.4120    5.0317   -0.4984 C.ar    1  LIG1       -0.0462
     11 C           2.3451    5.8205   -0.1553 C.ar    1  LIG1        0.0200
     12 S           0.9575    4.8783    0.2507 S.2     1  LIG1       -0.0850
     13 H           3.7907    2.8409   -0.6800 H       1  LIG1        0.0630
     14 H           4.3659    5.4303   -0.8103 H       1  LIG1        0.0629
     15 C           1.1414    7.9939   -0.4678 C.ar    1  LIG1       -0.0529
     16 C           1.1083    9.3804   -0.4143 C.ar    1  LIG1       -0.0503
     17 C           2.2988    7.2984   -0.1028 C.ar    1  LIG1       -0.0113
     18 C           2.2396   10.0846   -0.0004 C.ar    1  LIG1        0.0227
     19 H           0.2174    9.9242   -0.6972 H       1  LIG1        0.0625
     20 C           3.4251    8.0137    0.3187 C.ar    1  LIG1       -0.0529
     21 C           3.4008    9.4004    0.3632 C.ar    1  LIG1       -0.0503
     22 H           4.3105    7.4775    0.6338 H       1  LIG1        0.0624
     23 H           0.2720    7.4490   -0.8131 H       1  LIG1        0.0624
     24 H           4.2665    9.9606    0.6896 H       1  LIG1        0.0625
     25 C           2.2052   11.5671    0.0585 C.ar    1  LIG1        0.2033
     26 N           1.0728   12.1856   -0.2892 N.ar    1  LIG1       -0.1258
     27 C           2.1396   14.1110    0.1677 C.ar    1  LIG1        0.1605
     28 N           3.3058   12.2104    0.4574 N.ar    1  LIG1       -0.1258
     29 N           1.0384   13.4824   -0.2344 N.ar    1  LIG1       -0.1339
     30 N           3.2734   13.5077    0.5135 N.ar    1  LIG1       -0.1339
     31 H           2.1105   15.1891    0.2168 H       1  LIG1        0.1085
@<TRIPOS>BOND
     1    23    15    1
     2    14    10    1
     3    19    16    1
     4    13     9    1
     5    10     9   ar
     6    10    11   ar
     7    15    16   ar
     8    15    17   ar
     9     9     8   ar
    10    16    18   ar
    11    26    29   ar
    12    26    25   ar
    13    29    27   ar
    14    11    17    1
    15    11    12   ar
    16     5     2   ar
    17     5     3   ar
    18    17    20   ar
    19     8     3    1
    20     8    12   ar
    21     2     1   ar
    22    18    25    1
    23    18    21   ar
    24    25    28   ar
    25     3     6   ar
    26    27    31    1
    27    27    30   ar
    28    20    21   ar
    29    20    22    1
    30    21    24    1
    31     1     7    1
    32     1     4   ar
    33    28    30   ar
    34     6     4   ar
