@<TRIPOS>MOLECULE
mol_data/opt/m06hf/geoms/mol2/854-4.out
 35 38 0 0 0
SMALL
GASTEIGER

@<TRIPOS>ATOM
      1 C          -0.0049   -0.1924    0.2067 C.ar    1  LIG1        0.1605
      2 N           1.3187   -0.1821    0.0561 N.ar    1  LIG1       -0.1339
      3 C           1.1485    2.0674    0.0562 C.ar    1  LIG1        0.2098
      4 N          -0.7676    0.8935    0.2836 N.ar    1  LIG1       -0.1339
      5 N           1.9101    0.9696   -0.0206 N.ar    1  LIG1       -0.1253
      6 N          -0.1785    2.0488    0.2065 N.ar    1  LIG1       -0.1253
      7 H          -0.4933   -1.1527    0.2708 H       1  LIG1        0.1085
      8 C           1.8116    3.3679   -0.0290 C.ar    1  LIG1        0.0604
      9 C           3.1476    3.5921   -0.2119 C.ar    1  LIG1       -0.0432
     10 C           3.4561    4.9818   -0.2509 C.ar    1  LIG1       -0.0462
     11 C           2.3490    5.7741   -0.0943 C.ar    1  LIG1        0.0200
     12 S           0.9158    4.8339    0.1088 S.2     1  LIG1       -0.0850
     13 H           3.8620    2.7895   -0.3212 H       1  LIG1        0.0630
     14 H           4.4460    5.3793   -0.4184 H       1  LIG1        0.0629
     15 C           1.2171    7.9452   -0.6302 C.ar    1  LIG1       -0.0530
     16 C           1.1830    9.3338   -0.6008 C.ar    1  LIG1       -0.0534
     17 C           2.2954    7.2527   -0.0721 C.ar    1  LIG1       -0.0113
     18 C           2.2256   10.0612   -0.0207 C.ar    1  LIG1       -0.0178
     19 H           0.3558    9.8620   -1.0576 H       1  LIG1        0.0624
     20 C           3.3366    7.9770    0.5160 C.ar    1  LIG1       -0.0530
     21 C           3.3035    9.3653    0.5346 C.ar    1  LIG1       -0.0534
     22 H           4.1558    7.4471    0.9846 H       1  LIG1        0.0624
     23 H           0.4173    7.3966   -1.1124 H       1  LIG1        0.0624
     24 H           4.1012    9.9175    1.0156 H       1  LIG1        0.0624
     25 C           3.3215   12.2979   -0.3219 C.ar    1  LIG1       -0.0540
     26 C           3.2864   13.6884   -0.2882 C.ar    1  LIG1       -0.0612
     27 C           2.1873   11.5525    0.0115 C.ar    1  LIG1       -0.0179
     28 C           2.1169   14.3490    0.0791 C.ar    1  LIG1       -0.0617
     29 H           4.1688   14.2548   -0.5561 H       1  LIG1        0.0618
     30 C           1.0172   12.2224    0.3786 C.ar    1  LIG1       -0.0540
     31 C           0.9824   13.6129    0.4118 C.ar    1  LIG1       -0.0612
     32 H           0.1430   11.6491    0.6616 H       1  LIG1        0.0624
     33 H           2.0887   15.4304    0.1058 H       1  LIG1        0.0618
     34 H           4.2234   11.7836   -0.6302 H       1  LIG1        0.0624
     35 H           0.0731   14.1207    0.7054 H       1  LIG1        0.0618
@<TRIPOS>BOND
     1    23    15    1
     2    19    16    1
     3    34    25    1
     4    15    16   ar
     5    15    17   ar
     6    16    18   ar
     7    29    26    1
     8    14    10    1
     9    25    26   ar
    10    25    27   ar
    11    13     9    1
    12    26    28   ar
    13    10     9   ar
    14    10    11   ar
    15     9     8   ar
    16    11    17    1
    17    11    12   ar
    18    17    20   ar
    19     8     3    1
    20     8    12   ar
    21    18    27    1
    22    18    21   ar
    23     5     2   ar
    24     5     3   ar
    25    27    30   ar
    26     2     1   ar
    27     3     6   ar
    28    28    33    1
    29    28    31   ar
    30     6     4   ar
    31     1     7    1
    32     1     4   ar
    33    30    31   ar
    34    30    32    1
    35    31    35    1
    36    20    21   ar
    37    20    22    1
    38    21    24    1
