@<TRIPOS>MOLECULE
mol_data/opt/m06hf/geoms/mol2/854-8.out
 31 34 0 0 0
SMALL
GASTEIGER

@<TRIPOS>ATOM
      1 C           0.0125   -0.1327    0.3743 C.ar    1  LIG1        0.1605
      2 N           1.2885   -0.1307   -0.0079 N.ar    1  LIG1       -0.1339
      3 C           1.1599    2.1179    0.1054 C.ar    1  LIG1        0.2098
      4 N          -0.7056    0.9573    0.6268 N.ar    1  LIG1       -0.1339
      5 N           1.8775    1.0171   -0.1456 N.ar    1  LIG1       -0.1253
      6 N          -0.1188    2.1079    0.4890 N.ar    1  LIG1       -0.1253
      7 H          -0.4736   -1.0896    0.4880 H       1  LIG1        0.1085
      8 C           1.8154    3.4168   -0.0507 C.ar    1  LIG1        0.0604
      9 C           3.1092    3.6411   -0.4302 C.ar    1  LIG1       -0.0432
     10 C           3.4151    5.0309   -0.4875 C.ar    1  LIG1       -0.0462
     11 C           2.3465    5.8203   -0.1513 C.ar    1  LIG1        0.0200
     12 S           0.9565    4.8789    0.2479 S.2     1  LIG1       -0.0850
     13 H           3.7942    2.8397   -0.6649 H       1  LIG1        0.0630
     14 H           4.3709    5.4289   -0.7942 H       1  LIG1        0.0629
     15 C           1.1449    7.9932   -0.4738 C.ar    1  LIG1       -0.0529
     16 C           1.1112    9.3797   -0.4224 C.ar    1  LIG1       -0.0503
     17 C           2.3000    7.2983   -0.1006 C.ar    1  LIG1       -0.0113
     18 C           2.2397   10.0847   -0.0021 C.ar    1  LIG1        0.0227
     19 H           0.2220    9.9230   -0.7119 H       1  LIG1        0.0625
     20 C           3.4235    8.0142    0.3271 C.ar    1  LIG1       -0.0529
     21 C           3.3987    9.4010    0.3698 C.ar    1  LIG1       -0.0503
     22 H           4.3070    7.4787    0.6485 H       1  LIG1        0.0624
     23 H           0.2779    7.4477   -0.8242 H       1  LIG1        0.0624
     24 H           4.2621    9.9618    0.7011 H       1  LIG1        0.0625
     25 C           2.2047   11.5673    0.0548 C.ar    1  LIG1        0.2033
     26 N           3.3029   12.2112    0.4588 N.ar    1  LIG1       -0.1258
     27 C           2.1380   14.1113    0.1602 C.ar    1  LIG1        0.1605
     28 N           1.0741   12.1850   -0.3002 N.ar    1  LIG1       -0.1258
     29 N           3.2700   13.5086    0.5130 N.ar    1  LIG1       -0.1339
     30 N           1.0392   13.4819   -0.2472 N.ar    1  LIG1       -0.1339
     31 H           2.1084   15.1894    0.2077 H       1  LIG1        0.1085
@<TRIPOS>BOND
     1    23    15    1
     2    14    10    1
     3    19    16    1
     4    13     9    1
     5    10     9   ar
     6    10    11   ar
     7    15    16   ar
     8    15    17   ar
     9     9     8   ar
    10    16    18   ar
    11    28    30   ar
    12    28    25   ar
    13    30    27   ar
    14    11    17    1
    15    11    12   ar
    16     5     2   ar
    17     5     3   ar
    18    17    20   ar
    19     8     3    1
    20     8    12   ar
    21     2     1   ar
    22    18    25    1
    23    18    21   ar
    24    25    26   ar
    25     3     6   ar
    26    27    31    1
    27    27    29   ar
    28    20    21   ar
    29    20    22    1
    30    21    24    1
    31     1     7    1
    32     1     4   ar
    33    26    29   ar
    34     6     4   ar
