@<TRIPOS>MOLECULE
mol_data/opt/m06hf/geoms/mol2/854-.out
 25 27 0 0 0
SMALL
GASTEIGER

@<TRIPOS>ATOM
      1 C          -0.0332   -0.0858    0.0211 C.ar    1  LIG1        0.1605
      2 N           1.2984   -0.0864   -0.0127 N.ar    1  LIG1       -0.1339
      3 C           1.1461    2.1642    0.0077 C.ar    1  LIG1        0.2098
      4 N          -0.7917    1.0049    0.0482 N.ar    1  LIG1       -0.1339
      5 N           1.9036    1.0616   -0.0195 N.ar    1  LIG1       -0.1253
      6 N          -0.1894    2.1564    0.0416 N.ar    1  LIG1       -0.1253
      7 H          -0.5326   -1.0429    0.0266 H       1  LIG1        0.1085
      8 C           1.8213    3.4600   -0.0009 C.ar    1  LIG1        0.0604
      9 C           3.1692    3.6819   -0.0368 C.ar    1  LIG1       -0.0432
     10 C           3.4822    5.0697   -0.0390 C.ar    1  LIG1       -0.0462
     11 C           2.3693    5.8713   -0.0042 C.ar    1  LIG1        0.0200
     12 S           0.9228    4.9274    0.0354 S.2     1  LIG1       -0.0850
     13 H           3.8924    2.8801   -0.0635 H       1  LIG1        0.0630
     14 H           4.4938    5.4442   -0.0721 H       1  LIG1        0.0629
     15 C           1.0827    8.0233   -0.0340 C.ar    1  LIG1       -0.0535
     16 C           1.0351    9.4128   -0.0313 C.ar    1  LIG1       -0.0612
     17 C           2.3092    7.3522    0.0018 C.ar    1  LIG1       -0.0113
     18 C           2.2117   10.1548    0.0050 C.ar    1  LIG1       -0.0617
     19 H           0.0764    9.9139   -0.0606 H       1  LIG1        0.0618
     20 C           3.4866    8.1063    0.0413 C.ar    1  LIG1       -0.0535
     21 C           3.4377    9.4949    0.0423 C.ar    1  LIG1       -0.0612
     22 H           4.4473    7.6105    0.0766 H       1  LIG1        0.0624
     23 H           2.1742   11.2363    0.0058 H       1  LIG1        0.0618
     24 H           0.1549    7.4645   -0.0677 H       1  LIG1        0.0624
     25 H           4.3594   10.0612    0.0732 H       1  LIG1        0.0618
@<TRIPOS>BOND
     1    14    10    1
     2    24    15    1
     3    13     9    1
     4    19    16    1
     5    10     9   ar
     6    10    11   ar
     7     9     8   ar
     8    15    16   ar
     9    15    17   ar
    10    16    18   ar
    11     5     2   ar
    12     5     3   ar
    13     2     1   ar
    14    11    17    1
    15    11    12   ar
    16     8     3    1
    17     8    12   ar
    18    17    20   ar
    19    18    23    1
    20    18    21   ar
    21     3     6   ar
    22     1     7    1
    23     1     4   ar
    24    20    21   ar
    25    20    22    1
    26     6     4   ar
    27    21    25    1
