@<TRIPOS>MOLECULE
mol_data/opt/m06hf/geoms/mol2/854.out
 25 27 0 0 0
SMALL
GASTEIGER

@<TRIPOS>ATOM
      1 C           0.0765   -0.1235    0.3200 C.ar    1  LIG1        0.1605
      2 N           1.3504   -0.0875   -0.0692 N.ar    1  LIG1       -0.1339
      3 C           1.1654    2.1576    0.0605 C.ar    1  LIG1        0.2098
      4 N          -0.6683    0.9463    0.5802 N.ar    1  LIG1       -0.1339
      5 N           1.9088    1.0756   -0.2024 N.ar    1  LIG1       -0.1253
      6 N          -0.1124    2.1133    0.4472 N.ar    1  LIG1       -0.1253
      7 H          -0.3839   -1.0933    0.4327 H       1  LIG1        0.1085
      8 C           1.7947    3.4698   -0.0816 C.ar    1  LIG1        0.0604
      9 C           3.0808    3.7181   -0.4717 C.ar    1  LIG1       -0.0432
     10 C           3.3724    5.1119   -0.4989 C.ar    1  LIG1       -0.0462
     11 C           2.3035    5.8838   -0.1278 C.ar    1  LIG1        0.0200
     12 S           0.9256    4.9187    0.2635 S.2     1  LIG1       -0.0850
     13 H           3.7715    2.9296   -0.7319 H       1  LIG1        0.0630
     14 H           4.3204    5.5283   -0.8066 H       1  LIG1        0.0629
     15 C           3.3565    8.0564    0.4693 C.ar    1  LIG1       -0.0535
     16 C           3.3292    9.4436    0.5560 C.ar    1  LIG1       -0.0612
     17 C           2.2515    7.3603   -0.0296 C.ar    1  LIG1       -0.0113
     18 C           2.1947   10.1471    0.1578 C.ar    1  LIG1       -0.0617
     19 H           4.1885    9.9739    0.9451 H       1  LIG1        0.0618
     20 C           1.1154    8.0703   -0.4285 C.ar    1  LIG1       -0.0535
     21 C           1.0883    9.4576   -0.3314 C.ar    1  LIG1       -0.0612
     22 H           0.2635    7.5367   -0.8318 H       1  LIG1        0.0624
     23 H           2.1723   11.2264    0.2314 H       1  LIG1        0.0618
     24 H           4.2234    7.5034    0.8074 H       1  LIG1        0.0624
     25 H           0.2057    9.9993   -0.6448 H       1  LIG1        0.0618
@<TRIPOS>BOND
     1    22    20    1
     2    14    10    1
     3    13     9    1
     4    25    21    1
     5    10     9   ar
     6    10    11   ar
     7     9     8   ar
     8    20    21   ar
     9    20    17   ar
    10    21    18   ar
    11     5     2   ar
    12     5     3   ar
    13    11    17    1
    14    11    12   ar
    15     8     3    1
    16     8    12   ar
    17     2     1   ar
    18    17    15   ar
    19     3     6   ar
    20    18    23    1
    21    18    16   ar
    22     1     7    1
    23     1     4   ar
    24     6     4   ar
    25    15    16   ar
    26    15    24    1
    27    16    19    1
