@<TRIPOS>MOLECULE
mol_data/opt/m06hf/geoms/mol2/85513.out
 30 33 0 0 0
SMALL
GASTEIGER

@<TRIPOS>ATOM
      1 C           0.1880   -0.2238    0.5213 C.ar    1  LIG1        0.1605
      2 N           1.3666   -0.1691   -0.0975 N.ar    1  LIG1       -0.1339
      3 C           1.2216    2.0678    0.1525 C.ar    1  LIG1        0.2098
      4 N          -0.4877    0.8332    0.9615 N.ar    1  LIG1       -0.1339
      5 N           1.8969    0.9994   -0.2878 N.ar    1  LIG1       -0.1253
      6 N           0.0406    2.0050    0.7728 N.ar    1  LIG1       -0.1253
      7 H          -0.2489   -1.1985    0.6770 H       1  LIG1        0.1085
      8 C           1.8144    3.3881   -0.0578 C.ar    1  LIG1        0.0604
      9 C           3.0117    3.6589   -0.6593 C.ar    1  LIG1       -0.0432
     10 C           3.2779    5.0564   -0.7168 C.ar    1  LIG1       -0.0457
     11 C           2.2806    5.8046   -0.1476 C.ar    1  LIG1        0.0266
     12 S           1.0021    4.8157    0.4645 S.2     1  LIG1       -0.0845
     13 H           3.6543    2.8838   -1.0498 H       1  LIG1        0.0630
     14 H           4.1492    5.4963   -1.1784 H       1  LIG1        0.0629
     15 C           2.2544    7.2641   -0.0117 C.ar    1  LIG1        0.0265
     16 C           3.3157    8.0782    0.2623 C.ar    1  LIG1       -0.0458
     17 C           2.9628    9.4632    0.2853 C.ar    1  LIG1       -0.0449
     18 C           1.6348    9.6744    0.0505 C.ar    1  LIG1        0.0361
     19 S           0.7968    8.1808   -0.2085 S.2     1  LIG1       -0.0863
     20 H           4.3089    7.6972    0.4503 H       1  LIG1        0.0629
     21 H           3.6594   10.2703    0.4553 H       1  LIG1        0.0630
     22 C           0.9259   10.9544    0.0351 C.ar    1  LIG1        0.0531
     23 C           1.1033   12.0781    0.8134 C.ar    1  LIG1       -0.0359
     24 C           0.1524   13.0431    0.3837 C.ar    1  LIG1       -0.0438
     25 C          -0.5731   12.4731   -0.6360 C.ar    1  LIG1        0.0022
     26 N          -0.0996   11.2107   -0.8350 N.ar    1  LIG1       -0.3603
     27 H          -0.4023   10.5799   -1.5607 H       1  LIG1        0.1653
     28 H          -1.3803   12.8651   -1.2302 H       1  LIG1        0.0807
     29 H           1.8144   12.1693    1.6174 H       1  LIG1        0.0639
     30 H           0.0091   14.0327    0.7829 H       1  LIG1        0.0633
@<TRIPOS>BOND
     1    27    26    1
     2    28    25    1
     3    14    10    1
     4    13     9    1
     5    26    25   ar
     6    26    22   ar
     7    10     9   ar
     8    10    11   ar
     9     9     8   ar
    10    25    24   ar
    11     5     2   ar
    12     5     3   ar
    13    19    15   ar
    14    19    18   ar
    15    11    15    1
    16    11    12   ar
    17     2     1   ar
    18     8     3    1
    19     8    12   ar
    20    15    16   ar
    21    22    18    1
    22    22    23   ar
    23    18    17   ar
    24     3     6   ar
    25    16    17   ar
    26    16    20    1
    27    17    21    1
    28    24    30    1
    29    24    23   ar
    30     1     7    1
    31     1     4   ar
    32     6     4   ar
    33    23    29    1
