@<TRIPOS>MOLECULE
mol_data/opt/m06hf/geoms/mol2/858-8-.out
 27 30 0 0 0
SMALL
GASTEIGER

@<TRIPOS>ATOM
      1 C          -0.0049   -0.0665   -0.0006 C.ar    1  LIG1        0.1605
      2 N           1.3271   -0.0535   -0.0011 N.ar    1  LIG1       -0.1339
      3 C           1.1502    2.1928   -0.0002 C.ar    1  LIG1        0.2099
      4 N          -0.7754    1.0175    0.0001 N.ar    1  LIG1       -0.1339
      5 N           1.9199    1.1009   -0.0009 N.ar    1  LIG1       -0.1253
      6 N          -0.1837    2.1737    0.0003 N.ar    1  LIG1       -0.1253
      7 H          -0.4951   -1.0281   -0.0008 H       1  LIG1        0.1085
      8 C           1.8165    3.4999    0.0000 C.ar    1  LIG1        0.0605
      9 C           3.1683    3.7180   -0.0004 C.ar    1  LIG1       -0.0431
     10 C           3.4777    5.1048   -0.0001 C.ar    1  LIG1       -0.0431
     11 C           2.3447    5.8759    0.0004 C.ar    1  LIG1        0.0605
     12 S           0.8947    4.9508    0.0009 S.2     1  LIG1       -0.0818
     13 H           3.8895    2.9147   -0.0009 H       1  LIG1        0.0630
     14 H           4.4722    5.5244   -0.0005 H       1  LIG1        0.0630
     15 C           2.2946    7.3377    0.0006 C.ar    1  LIG1        0.2099
     16 N           1.0938    7.9228    0.0011 N.ar    1  LIG1       -0.1246
     17 C           2.2015    9.8764    0.0008 C.ar    1  LIG1        0.2435
     18 N           3.4532    8.0070    0.0001 N.ar    1  LIG1       -0.1246
     19 N           1.0449    9.2177    0.0012 N.ar    1  LIG1       -0.1218
     20 N           3.4035    9.3009    0.0002 N.ar    1  LIG1       -0.1218
     21 C           2.1491   11.3703    0.0009 C.ar    1  LIG1        0.2434
     22 N           0.9469   11.9411    0.0018 N.ar    1  LIG1       -0.1224
     23 C           2.0590   13.8969    0.0007 C.ar    1  LIG1        0.1605
     24 N           3.3080   12.0251   -0.0001 N.ar    1  LIG1       -0.1224
     25 N           0.9014   13.2403    0.0017 N.ar    1  LIG1       -0.1338
     26 N           3.2600   13.3245   -0.0002 N.ar    1  LIG1       -0.1338
     27 H           2.0197   14.9760    0.0007 H       1  LIG1        0.1085
@<TRIPOS>BOND
     1     2     5   ar
     2     2     1   ar
     3     5     3   ar
     4    13     9    1
     5     7     1    1
     6     1     4   ar
     7    14    10    1
     8     9    10   ar
     9     9     8   ar
    10    26    24   ar
    11    26    23   ar
    12     3     8    1
    13     3     6   ar
    14    10    11   ar
    15    24    21   ar
    16     8    12   ar
    17     4     6   ar
    18    18    20   ar
    19    18    15   ar
    20    20    17   ar
    21    11    15    1
    22    11    12   ar
    23    15    16   ar
    24    23    27    1
    25    23    25   ar
    26    17    21    1
    27    17    19   ar
    28    21    22   ar
    29    16    19   ar
    30    25    22   ar
