@<TRIPOS>MOLECULE
mol_data/opt/m06hf/geoms/mol2/858.out
 21 23 0 0 0
SMALL
GASTEIGER

@<TRIPOS>ATOM
      1 C          -0.0096   -0.0341   -0.0000 C.ar    1  LIG1        0.1605
      2 N           1.3224   -0.0282   -0.0004 N.ar    1  LIG1       -0.1339
      3 C           1.1573    2.2196   -0.0001 C.ar    1  LIG1        0.2099
      4 N          -0.7748    1.0534    0.0003 N.ar    1  LIG1       -0.1339
      5 N           1.9214    1.1238   -0.0005 N.ar    1  LIG1       -0.1253
      6 N          -0.1775    2.2069    0.0003 N.ar    1  LIG1       -0.1253
      7 H          -0.5045   -0.9937    0.0000 H       1  LIG1        0.1085
      8 C           1.8259    3.5244   -0.0002 C.ar    1  LIG1        0.0605
      9 C           3.1776    3.7450   -0.0005 C.ar    1  LIG1       -0.0431
     10 C           3.4842    5.1329   -0.0005 C.ar    1  LIG1       -0.0431
     11 C           2.3514    5.9026   -0.0001 C.ar    1  LIG1        0.0605
     12 S           0.9046    4.9751    0.0003 S.2     1  LIG1       -0.0818
     13 H           3.9016    2.9439   -0.0008 H       1  LIG1        0.0630
     14 H           4.4784    5.5544   -0.0007 H       1  LIG1        0.0630
     15 C           2.2948    7.3675   -0.0000 C.ar    1  LIG1        0.2099
     16 N           3.4494    8.0394   -0.0003 N.ar    1  LIG1       -0.1253
     17 C           2.1862    9.9031    0.0004 C.ar    1  LIG1        0.1605
     18 N           1.0896    7.9415    0.0004 N.ar    1  LIG1       -0.1253
     19 N           3.3917    9.3365   -0.0001 N.ar    1  LIG1       -0.1339
     20 N           1.0339    9.2393    0.0006 N.ar    1  LIG1       -0.1339
     21 H           2.1416   10.9819    0.0004 H       1  LIG1        0.1085
@<TRIPOS>BOND
     1    13     9    1
     2    14    10    1
     3     9    10   ar
     4     9     8   ar
     5     5     2   ar
     6     5     3   ar
     7    10    11   ar
     8     2     1   ar
     9    16    19   ar
    10    16    15   ar
    11     8     3    1
    12     8    12   ar
    13     3     6   ar
    14    11    15    1
    15    11    12   ar
    16    19    17   ar
    17     1     7    1
    18     1     4   ar
    19    15    18   ar
    20     6     4   ar
    21    21    17    1
    22    17    20   ar
    23    18    20   ar
