@<TRIPOS>MOLECULE
mol_data/opt/m06hf/geoms/mol2/88-.out
 14 15 0 0 0
SMALL
GASTEIGER

@<TRIPOS>ATOM
      1 C           0.0059    0.0118    0.0001 C.ar    1  LIG1        0.1605
      2 N           1.3361    0.0334    0.0001 N.ar    1  LIG1       -0.1338
      3 C           1.1362    2.2717   -0.0000 C.ar    1  LIG1        0.2434
      4 N          -0.7747    1.0890   -0.0001 N.ar    1  LIG1       -0.1338
      5 N           1.9185    1.1959    0.0000 N.ar    1  LIG1       -0.1224
      6 N          -0.1939    2.2524   -0.0002 N.ar    1  LIG1       -0.1224
      7 H          -0.4772   -0.9543    0.0001 H       1  LIG1        0.1085
      8 C           1.8062    3.6114   -0.0004 C.ar    1  LIG1        0.2434
      9 N           1.0238    4.6872   -0.0001 N.ar    1  LIG1       -0.1224
     10 C           2.9364    5.8714    0.0005 C.ar    1  LIG1        0.1605
     11 N           3.1363    3.6307   -0.0002 N.ar    1  LIG1       -0.1224
     12 N           1.6063    5.8497    0.0001 N.ar    1  LIG1       -0.1338
     13 N           3.7170    4.7941    0.0000 N.ar    1  LIG1       -0.1338
     14 H           3.4196    6.8374   -0.0001 H       1  LIG1        0.1085
@<TRIPOS>BOND
     1     8    11   ar
     2     8     9   ar
     3     8     3    1
     4    11    13   ar
     5     6     4   ar
     6     6     3   ar
     7     9    12   ar
     8     4     1   ar
     9    14    10    1
    10     3     5   ar
    11    13    10   ar
    12     5     2   ar
    13     1     2   ar
    14     1     7    1
    15    12    10   ar
