@<TRIPOS>MOLECULE
mol_data/opt/m06hf/geoms/mol2/88-13-12.out
 29 32 0 0 0
SMALL
GASTEIGER

@<TRIPOS>ATOM
      1 C           0.0224   -0.0380    0.0005 C.ar    1  LIG1        0.1605
      2 N           1.3520    0.0016    0.0005 N.ar    1  LIG1       -0.1338
      3 C           1.1250    2.2393   -0.0000 C.ar    1  LIG1        0.2434
      4 N          -0.7715    1.0298    0.0003 N.ar    1  LIG1       -0.1338
      5 N           1.9204    1.1710    0.0002 N.ar    1  LIG1       -0.1224
      6 N          -0.2059    2.2007    0.0001 N.ar    1  LIG1       -0.1224
      7 H          -0.4475   -1.0104    0.0008 H       1  LIG1        0.1085
      8 C           1.7759    3.5833   -0.0002 C.ar    1  LIG1        0.2435
      9 N           0.9785    4.6547    0.0001 N.ar    1  LIG1       -0.1218
     10 C           2.8718    5.8795   -0.0007 C.ar    1  LIG1        0.2194
     11 N           3.1045    3.6294   -0.0008 N.ar    1  LIG1       -0.1218
     12 N           1.5306    5.8227   -0.0001 N.ar    1  LIG1       -0.1236
     13 N           3.6636    4.7988   -0.0010 N.ar    1  LIG1       -0.1236
     14 C           3.5101    7.1767   -0.0006 C.ar    1  LIG1        0.0880
     15 C           2.9762    8.4537    0.0002 C.ar    1  LIG1       -0.0325
     16 C           4.0635    9.3501   -0.0009 C.ar    1  LIG1       -0.0327
     17 C           5.2246    8.5871   -0.0009 C.ar    1  LIG1        0.0826
     18 N           4.8719    7.2793   -0.0007 N.ar    1  LIG1       -0.3492
     19 H           5.4857    6.4764   -0.0008 H       1  LIG1        0.1661
     20 H           1.9246    8.6844    0.0008 H       1  LIG1        0.0640
     21 H           4.0314   10.4258   -0.0012 H       1  LIG1        0.0640
     22 C           6.6145    9.0200   -0.0012 C.ar    1  LIG1        0.1509
     23 C           7.8049    8.3598   -0.0016 C.ar    1  LIG1       -0.0144
     24 C           8.8185    9.3785   -0.0021 C.ar    1  LIG1       -0.0233
     25 C           8.1563   10.5606   -0.0015 C.ar    1  LIG1        0.0926
     26 O           6.8237   10.3523   -0.0013 O.2     1  LIG1       -0.4615
     27 H           8.4772   11.5868   -0.0014 H       1  LIG1        0.1029
     28 H           7.9565    7.2935   -0.0017 H       1  LIG1        0.0656
     29 H           9.8852    9.2377   -0.0026 H       1  LIG1        0.0649
@<TRIPOS>BOND
     1    29    24    1
     2    24    23   ar
     3    24    25   ar
     4    28    23    1
     5    23    22   ar
     6    25    27    1
     7    25    26   ar
     8    26    22   ar
     9    22    17    1
    10    21    16    1
    11    13    11   ar
    12    13    10   ar
    13    16    17   ar
    14    16    15   ar
    15    17    18   ar
    16    19    18    1
    17    11     8   ar
    18    10    14    1
    19    10    12   ar
    20    18    14   ar
    21    14    15   ar
    22     8     3    1
    23     8     9   ar
    24    12     9   ar
    25     3     6   ar
    26     3     5   ar
    27     6     4   ar
    28     5     2   ar
    29    15    20    1
    30     4     1   ar
    31     2     1   ar
    32     1     7    1
