@<TRIPOS>MOLECULE
mol_data/opt/m06hf/geoms/mol2/88-13-.out
 22 24 0 0 0
SMALL
GASTEIGER

@<TRIPOS>ATOM
      1 C           0.0218   -0.0166    0.0002 C.ar    1  LIG1        0.1605
      2 N           1.3517    0.0179    0.0001 N.ar    1  LIG1       -0.1338
      3 C           1.1324    2.2560    0.0000 C.ar    1  LIG1        0.2434
      4 N          -0.7680    1.0536    0.0001 N.ar    1  LIG1       -0.1338
      5 N           1.9238    1.1853    0.0001 N.ar    1  LIG1       -0.1224
      6 N          -0.1986    2.2224    0.0000 N.ar    1  LIG1       -0.1224
      7 H          -0.4519   -0.9873    0.0002 H       1  LIG1        0.1085
      8 C           1.7882    3.5983   -0.0001 C.ar    1  LIG1        0.2435
      9 N           0.9982    4.6737    0.0000 N.ar    1  LIG1       -0.1218
     10 C           2.8990    5.8872   -0.0002 C.ar    1  LIG1        0.2194
     11 N           3.1172    3.6358   -0.0002 N.ar    1  LIG1       -0.1218
     12 N           1.5578    5.8388   -0.0001 N.ar    1  LIG1       -0.1236
     13 N           3.6829    4.8016   -0.0003 N.ar    1  LIG1       -0.1236
     14 C           3.5495    7.1803   -0.0003 C.ar    1  LIG1        0.0875
     15 C           3.0307    8.4620   -0.0002 C.ar    1  LIG1       -0.0333
     16 C           4.1324    9.3460   -0.0006 C.ar    1  LIG1       -0.0437
     17 C           5.2795    8.5717   -0.0004 C.ar    1  LIG1        0.0023
     18 N           4.9128    7.2696   -0.0004 N.ar    1  LIG1       -0.3582
     19 H           5.5183    6.4613   -0.0004 H       1  LIG1        0.1654
     20 H           6.3167    8.8595   -0.0004 H       1  LIG1        0.0807
     21 H           1.9813    8.7052   -0.0001 H       1  LIG1        0.0640
     22 H           4.0999   10.4217   -0.0007 H       1  LIG1        0.0633
@<TRIPOS>BOND
     1    22    16    1
     2    16    17   ar
     3    16    15   ar
     4    20    17    1
     5    19    18    1
     6    17    18   ar
     7    18    14   ar
     8    13    10   ar
     9    13    11   ar
    10    14    10    1
    11    14    15   ar
    12    10    12   ar
    13    11     8   ar
    14    15    21    1
    15    12     9   ar
    16     8     9   ar
    17     8     3    1
    18     3     6   ar
    19     3     5   ar
    20     6     4   ar
    21     5     2   ar
    22     4     1   ar
    23     2     1   ar
    24     1     7    1
