@<TRIPOS>MOLECULE
mol_data/opt/m06hf/geoms/mol2/88-1312-.out
 29 32 0 0 0
SMALL
GASTEIGER

@<TRIPOS>ATOM
      1 C          -0.0439   -0.0048   -0.0003 C.ar    1  LIG1        0.1605
      2 N           1.2867    0.0004    0.0002 N.ar    1  LIG1       -0.1338
      3 C           1.1169    2.2434   -0.0003 C.ar    1  LIG1        0.2434
      4 N          -0.8098    1.0828   -0.0008 N.ar    1  LIG1       -0.1338
      5 N           1.8843    1.1553    0.0002 N.ar    1  LIG1       -0.1224
      6 N          -0.2150    2.2390   -0.0007 N.ar    1  LIG1       -0.1224
      7 H          -0.5401   -0.9641   -0.0004 H       1  LIG1        0.1085
      8 C           1.8019    3.5703   -0.0001 C.ar    1  LIG1        0.2435
      9 N           1.0418    4.6611   -0.0000 N.ar    1  LIG1       -0.1218
     10 C           2.9819    5.8245    0.0000 C.ar    1  LIG1        0.2194
     11 N           3.1375    3.5750   -0.0000 N.ar    1  LIG1       -0.1218
     12 N           1.6422    5.8099    0.0000 N.ar    1  LIG1       -0.1236
     13 N           3.7409    4.7173    0.0001 N.ar    1  LIG1       -0.1236
     14 C           3.6369    7.1133    0.0004 C.ar    1  LIG1        0.0880
     15 C           4.9789    7.4521    0.0009 C.ar    1  LIG1       -0.0325
     16 C           5.0439    8.8598    0.0003 C.ar    1  LIG1       -0.0327
     17 C           3.7369    9.3311    0.0009 C.ar    1  LIG1        0.0826
     18 N           2.9021    8.2645    0.0009 N.ar    1  LIG1       -0.3492
     19 H           1.8915    8.2740    0.0010 H       1  LIG1        0.1661
     20 H           5.7943    6.7492    0.0010 H       1  LIG1        0.0640
     21 H           5.9238    9.4794    0.0000 H       1  LIG1        0.0640
     22 C           3.2496   10.7029    0.0012 C.ar    1  LIG1        0.1509
     23 C           2.0073   11.2593    0.0020 C.ar    1  LIG1       -0.0144
     24 C           2.2143   12.6814    0.0016 C.ar    1  LIG1       -0.0233
     25 C           3.5574   12.8606    0.0011 C.ar    1  LIG1        0.0926
     26 O           4.1902   11.6694    0.0005 O.2     1  LIG1       -0.4615
     27 H           4.1860   13.7328    0.0008 H       1  LIG1        0.1029
     28 H           1.0632   10.7410    0.0026 H       1  LIG1        0.0656
     29 H           1.4618   13.4504    0.0019 H       1  LIG1        0.0649
@<TRIPOS>BOND
     1     4     6   ar
     2     4     1   ar
     3     6     3   ar
     4     7     1    1
     5     1     2   ar
     6     3     8    1
     7     3     5   ar
     8     8     9   ar
     9     8    11   ar
    10     9    12   ar
    11    11    13   ar
    12    10    12   ar
    13    10    13   ar
    14    10    14    1
    15    21    16    1
    16     2     5   ar
    17    16    17   ar
    18    16    15   ar
    19    14    15   ar
    20    14    18   ar
    21    26    25   ar
    22    26    22   ar
    23    27    25    1
    24    17    18   ar
    25    17    22    1
    26    15    20    1
    27    18    19    1
    28    25    24   ar
    29    22    23   ar
    30    24    29    1
    31    24    23   ar
    32    23    28    1
