@<TRIPOS>MOLECULE
mol_data/opt/m06hf/geoms/mol2/88-13.out
 22 24 0 0 0
SMALL
GASTEIGER

@<TRIPOS>ATOM
      1 C          -0.0263    0.0074   -0.0002 C.ar    1  LIG1        0.1605
      2 N           1.3037    0.0174   -0.0001 N.ar    1  LIG1       -0.1338
      3 C           1.1259    2.2593   -0.0000 C.ar    1  LIG1        0.2434
      4 N          -0.7965    1.0922   -0.0002 N.ar    1  LIG1       -0.1338
      5 N           1.8973    1.1742   -0.0000 N.ar    1  LIG1       -0.1224
      6 N          -0.2056    2.2502   -0.0001 N.ar    1  LIG1       -0.1224
      7 H          -0.5189   -0.9537   -0.0003 H       1  LIG1        0.1085
      8 C           1.8064    3.5892    0.0001 C.ar    1  LIG1        0.2435
      9 N           1.0393    4.6750    0.0001 N.ar    1  LIG1       -0.1218
     10 C           2.9715    5.8509    0.0002 C.ar    1  LIG1        0.2194
     11 N           3.1408    3.6021    0.0001 N.ar    1  LIG1       -0.1218
     12 N           1.6327    5.8269    0.0002 N.ar    1  LIG1       -0.1236
     13 N           3.7374    4.7487    0.0002 N.ar    1  LIG1       -0.1236
     14 C           3.6160    7.1470    0.0003 C.ar    1  LIG1        0.0875
     15 C           4.9528    7.5007    0.0003 C.ar    1  LIG1       -0.0333
     16 C           4.9993    8.9125    0.0006 C.ar    1  LIG1       -0.0437
     17 C           3.6916    9.3659    0.0003 C.ar    1  LIG1        0.0023
     18 N           2.8698    8.2913    0.0003 N.ar    1  LIG1       -0.3582
     19 H           1.8598    8.2910    0.0002 H       1  LIG1        0.1654
     20 H           3.2998   10.3684    0.0003 H       1  LIG1        0.0807
     21 H           5.7769    6.8069    0.0003 H       1  LIG1        0.0640
     22 H           5.8794    9.5316    0.0009 H       1  LIG1        0.0633
@<TRIPOS>BOND
     1     7     1    1
     2     1     4   ar
     3     1     2   ar
     4     4     6   ar
     5     2     5   ar
     6     6     3   ar
     7     5     3   ar
     8     3     8    1
     9     8    11   ar
    10     8     9   ar
    11    11    13   ar
    12     9    12   ar
    13    13    10   ar
    14    19    18    1
    15    12    10   ar
    16    10    14    1
    17    18    17   ar
    18    18    14   ar
    19    20    17    1
    20    21    15    1
    21    15    14   ar
    22    15    16   ar
    23    17    16   ar
    24    16    22    1
