@<TRIPOS>MOLECULE
mol_data/opt/m06hf/geoms/mol2/88-48-.out
 30 33 0 0 0
SMALL
GASTEIGER

@<TRIPOS>ATOM
      1 C          -0.0092   -0.0740   -0.0011 C.ar    1  LIG1        0.1605
      2 N           1.3208   -0.0438   -0.0007 N.ar    1  LIG1       -0.1338
      3 C           1.1074    2.1938   -0.0004 C.ar    1  LIG1        0.2434
      4 N          -0.7962    0.9986   -0.0013 N.ar    1  LIG1       -0.1338
      5 N           1.8962    1.1221   -0.0003 N.ar    1  LIG1       -0.1224
      6 N          -0.2230    2.1656   -0.0009 N.ar    1  LIG1       -0.1224
      7 H          -0.4863   -1.0430   -0.0016 H       1  LIG1        0.1085
      8 C           1.7680    3.5356    0.0001 C.ar    1  LIG1        0.2435
      9 N           0.9833    4.6102    0.0001 N.ar    1  LIG1       -0.1218
     10 C           2.8934    5.8212    0.0010 C.ar    1  LIG1        0.2034
     11 N           3.0982    3.5689    0.0005 N.ar    1  LIG1       -0.1218
     12 N           1.5577    5.7720    0.0006 N.ar    1  LIG1       -0.1251
     13 N           3.6688    4.7326    0.0010 N.ar    1  LIG1       -0.1251
     14 C           4.9426    7.2360    0.0021 C.ar    1  LIG1       -0.0503
     15 C           5.5553    8.4815    0.0027 C.ar    1  LIG1       -0.0503
     16 C           3.5487    7.1522    0.0016 C.ar    1  LIG1        0.0227
     17 C           4.7723    9.6374    0.0027 C.ar    1  LIG1        0.0227
     18 H           6.6330    8.5678    0.0031 H       1  LIG1        0.0625
     19 C           2.7652    8.3081    0.0016 C.ar    1  LIG1       -0.0503
     20 C           3.3788    9.5532    0.0022 C.ar    1  LIG1       -0.0503
     21 H           1.6874    8.2227    0.0012 H       1  LIG1        0.0625
     22 H           5.5321    6.3297    0.0021 H       1  LIG1        0.0625
     23 H           2.7900   10.4599    0.0022 H       1  LIG1        0.0625
     24 C           5.4290   10.9712    0.0033 C.ar    1  LIG1        0.2033
     25 N           4.6515   12.0566    0.0036 N.ar    1  LIG1       -0.1258
     26 C           6.5535   13.2551    0.0052 C.ar    1  LIG1        0.1605
     27 N           6.7634   11.0168    0.0040 N.ar    1  LIG1       -0.1258
     28 N           5.2238   13.2224    0.0044 N.ar    1  LIG1       -0.1339
     29 N           7.3384   12.1812    0.0049 N.ar    1  LIG1       -0.1339
     30 H           7.0305   14.2238    0.0055 H       1  LIG1        0.1085
@<TRIPOS>BOND
     1     7     1    1
     2     4     1   ar
     3     4     6   ar
     4     1     2   ar
     5     6     3   ar
     6     2     5   ar
     7     3     5   ar
     8     3     8    1
     9     8     9   ar
    10     8    11   ar
    11     9    12   ar
    12    11    13   ar
    13    12    10   ar
    14    13    10   ar
    15    10    16    1
    16    21    19    1
    17    16    19   ar
    18    16    14   ar
    19    19    20   ar
    20    22    14    1
    21    14    15   ar
    22    20    23    1
    23    20    17   ar
    24    15    17   ar
    25    15    18    1
    26    17    24    1
    27    24    25   ar
    28    24    27   ar
    29    25    28   ar
    30    27    29   ar
    31    28    26   ar
    32    29    26   ar
    33    26    30    1
