@<TRIPOS>MOLECULE
mol_data/opt/m06hf/geoms/mol2/88-4-8.out
 30 33 0 0 0
SMALL
GASTEIGER

@<TRIPOS>ATOM
      1 C          -0.0537   -0.0517    0.0013 C.ar    1  LIG1        0.1605
      2 N           1.2766   -0.0381    0.0013 N.ar    1  LIG1       -0.1338
      3 C           1.0911    2.2019    0.0004 C.ar    1  LIG1        0.2434
      4 N          -0.8273    1.0306    0.0008 N.ar    1  LIG1       -0.1338
      5 N           1.8665    1.1205    0.0009 N.ar    1  LIG1       -0.1224
      6 N          -0.2396    2.1903    0.0003 N.ar    1  LIG1       -0.1224
      7 H          -0.5428   -1.0147    0.0017 H       1  LIG1        0.1085
      8 C           1.7684    3.5354   -0.0002 C.ar    1  LIG1        0.2435
      9 N           0.9972    4.6197   -0.0006 N.ar    1  LIG1       -0.1218
     10 C           2.9222    5.8068   -0.0011 C.ar    1  LIG1        0.2034
     11 N           3.0989    3.5521   -0.0002 N.ar    1  LIG1       -0.1218
     12 N           1.5860    5.7742   -0.0011 N.ar    1  LIG1       -0.1251
     13 N           3.6839    4.7086   -0.0007 N.ar    1  LIG1       -0.1251
     14 C           2.8250    8.2951   -0.0021 C.ar    1  LIG1       -0.0503
     15 C           3.4541    9.5324   -0.0027 C.ar    1  LIG1       -0.0503
     16 C           3.5941    7.1295   -0.0016 C.ar    1  LIG1        0.0227
     17 C           4.8486    9.5993   -0.0027 C.ar    1  LIG1        0.0227
     18 H           2.8767   10.4464   -0.0031 H       1  LIG1        0.0625
     19 C           4.9889    7.1959   -0.0017 C.ar    1  LIG1       -0.0503
     20 C           5.6171    8.4337   -0.0022 C.ar    1  LIG1       -0.0503
     21 H           5.5671    6.2823   -0.0013 H       1  LIG1        0.0625
     22 H           1.7462    8.2231   -0.0021 H       1  LIG1        0.0625
     23 H           6.6958    8.5065   -0.0023 H       1  LIG1        0.0625
     24 C           5.5219   10.9248   -0.0033 C.ar    1  LIG1        0.2033
     25 N           6.8568   10.9537   -0.0035 N.ar    1  LIG1       -0.1258
     26 C           6.6748   13.1944   -0.0051 C.ar    1  LIG1        0.1605
     27 N           4.7579   12.0198   -0.0040 N.ar    1  LIG1       -0.1258
     28 N           7.4463   12.1109   -0.0043 N.ar    1  LIG1       -0.1339
     29 N           5.3447   13.1784   -0.0048 N.ar    1  LIG1       -0.1339
     30 H           7.1638   14.1571   -0.0054 H       1  LIG1        0.1085
@<TRIPOS>BOND
     1    30    26    1
     2    26    29   ar
     3    26    28   ar
     4    29    27   ar
     5    28    25   ar
     6    27    24   ar
     7    25    24   ar
     8    24    17    1
     9    18    15    1
    10    17    15   ar
    11    17    20   ar
    12    15    14   ar
    13    23    20    1
    14    20    19   ar
    15    14    22    1
    16    14    16   ar
    17    19    16   ar
    18    19    21    1
    19    16    10    1
    20    10    12   ar
    21    10    13   ar
    22    12     9   ar
    23    13    11   ar
    24     9     8   ar
    25    11     8   ar
    26     8     3    1
    27     6     3   ar
    28     6     4   ar
    29     3     5   ar
    30     4     1   ar
    31     5     2   ar
    32     1     2   ar
    33     1     7    1
