@<TRIPOS>MOLECULE
mol_data/opt/m06hf/geoms/mol2/88-4.out
 24 26 0 0 0
SMALL
GASTEIGER

@<TRIPOS>ATOM
      1 C           0.0006   -0.0350   -0.0006 C.ar    1  LIG1        0.1605
      2 N           1.3306   -0.0074   -0.0001 N.ar    1  LIG1       -0.1338
      3 C           1.1221    2.2311   -0.0001 C.ar    1  LIG1        0.2434
      4 N          -0.7841    1.0392   -0.0008 N.ar    1  LIG1       -0.1338
      5 N           1.9084    1.1573    0.0001 N.ar    1  LIG1       -0.1224
      6 N          -0.2086    2.2050   -0.0005 N.ar    1  LIG1       -0.1224
      7 H          -0.4784   -1.0030   -0.0008 H       1  LIG1        0.1085
      8 C           1.7854    3.5713    0.0002 C.ar    1  LIG1        0.2435
      9 N           1.0032    4.6474    0.0002 N.ar    1  LIG1       -0.1218
     10 C           2.9164    5.8566    0.0007 C.ar    1  LIG1        0.2034
     11 N           3.1154    3.6021    0.0006 N.ar    1  LIG1       -0.1218
     12 N           1.5796    5.8080    0.0004 N.ar    1  LIG1       -0.1251
     13 N           3.6885    4.7643    0.0008 N.ar    1  LIG1       -0.1251
     14 C           4.9677    7.2660    0.0014 C.ar    1  LIG1       -0.0509
     15 C           5.5796    8.5141    0.0017 C.ar    1  LIG1       -0.0611
     16 C           3.5737    7.1847    0.0010 C.ar    1  LIG1        0.0226
     17 C           4.8048    9.6723    0.0016 C.ar    1  LIG1       -0.0617
     18 H           6.6591    8.5818    0.0020 H       1  LIG1        0.0618
     19 C           2.7929    8.3424    0.0009 C.ar    1  LIG1       -0.0509
     20 C           3.4140    9.5859    0.0012 C.ar    1  LIG1       -0.0611
     21 H           1.7148    8.2574    0.0006 H       1  LIG1        0.0625
     22 H           5.2849   10.6423    0.0018 H       1  LIG1        0.0618
     23 H           5.5540    6.3573    0.0015 H       1  LIG1        0.0625
     24 H           2.8132   10.4851    0.0011 H       1  LIG1        0.0618
@<TRIPOS>BOND
     1     7     1    1
     2     4     1   ar
     3     4     6   ar
     4     1     2   ar
     5     6     3   ar
     6     2     5   ar
     7     3     5   ar
     8     3     8    1
     9     9     8   ar
    10     9    12   ar
    11     8    11   ar
    12    12    10   ar
    13    11    13   ar
    14    21    19    1
    15    10    13   ar
    16    10    16    1
    17    19    16   ar
    18    19    20   ar
    19    16    14   ar
    20    24    20    1
    21    20    17   ar
    22    14    23    1
    23    14    15   ar
    24    17    15   ar
    25    17    22    1
    26    15    18    1
