@<TRIPOS>MOLECULE
mol_data/opt/m06hf/geoms/mol2/88-5-5-.out
 28 31 0 0 0
SMALL
GASTEIGER

@<TRIPOS>ATOM
      1 C          -0.0218   -0.0461   -0.1219 C.ar    1  LIG1        0.1605
      2 N           1.1520    0.0824   -0.7350 N.ar    1  LIG1       -0.1338
      3 C           1.0870    2.2218   -0.0517 C.ar    1  LIG1        0.2434
      4 N          -0.6572    0.9279    0.5244 N.ar    1  LIG1       -0.1338
      5 N           1.7230    1.2502   -0.7020 N.ar    1  LIG1       -0.1224
      6 N          -0.0859    2.0956    0.5642 N.ar    1  LIG1       -0.1224
      7 H          -0.4951   -1.0164   -0.1518 H       1  LIG1        0.1085
      8 C           1.7428    3.5607   -0.0091 C.ar    1  LIG1        0.2435
      9 N           0.9536    4.6283    0.1061 N.ar    1  LIG1       -0.1218
     10 C           2.8550    5.8429    0.0652 C.ar    1  LIG1        0.2099
     11 N           3.0696    3.5995   -0.0893 N.ar    1  LIG1       -0.1218
     12 N           1.5185    5.7921    0.1449 N.ar    1  LIG1       -0.1246
     13 N           3.6369    4.7643   -0.0522 N.ar    1  LIG1       -0.1246
     14 C           3.4951    7.1525    0.1061 C.ar    1  LIG1        0.0604
     15 C           2.8671    8.3630    0.2200 C.ar    1  LIG1       -0.0432
     16 C           3.7917    9.4434    0.2407 C.ar    1  LIG1       -0.0457
     17 C           5.0924    9.0231    0.1308 C.ar    1  LIG1        0.0266
     18 S           5.2087    7.3065    0.0020 S.2     1  LIG1       -0.0845
     19 H           1.7942    8.4575    0.2987 H       1  LIG1        0.0630
     20 H           3.5201   10.4817    0.3579 H       1  LIG1        0.0629
     21 C           6.2840    9.8781    0.0905 C.ar    1  LIG1        0.0259
     22 C           6.3989   11.0843   -0.5396 C.ar    1  LIG1       -0.0464
     23 C           7.6937   11.6708   -0.3743 C.ar    1  LIG1       -0.0541
     24 C           8.5246   10.8891    0.3678 C.ar    1  LIG1       -0.0237
     25 S           7.7541    9.4444    0.8900 S.2     1  LIG1       -0.0961
     26 H           9.5490   11.0821    0.6418 H       1  LIG1        0.0693
     27 H           5.5977   11.5198   -1.1187 H       1  LIG1        0.0629
     28 H           7.9859   12.6195   -0.7981 H       1  LIG1        0.0623
@<TRIPOS>BOND
     1    27    22    1
     2    28    23    1
     3     2     5   ar
     4     2     1   ar
     5     5     3   ar
     6    22    23   ar
     7    22    21   ar
     8    23    24   ar
     9     7     1    1
    10     1     4   ar
    11    11    13   ar
    12    11     8   ar
    13    13    10   ar
    14     3     8    1
    15     3     6   ar
    16     8     9   ar
    17    18    14   ar
    18    18    17   ar
    19    10    14    1
    20    10    12   ar
    21    21    17    1
    22    21    25   ar
    23     9    12   ar
    24    14    15   ar
    25    17    16   ar
    26    15    16   ar
    27    15    19    1
    28    16    20    1
    29    24    26    1
    30    24    25   ar
    31     4     6   ar
