@<TRIPOS>MOLECULE
mol_data/opt/m06hf/geoms/mol2/88-5-12-.out
 28 31 0 0 0
SMALL
GASTEIGER

@<TRIPOS>ATOM
      1 C          -0.0191   -0.0484   -0.0003 C.ar    1  LIG1        0.1605
      2 N           1.3112   -0.0150    0.0002 N.ar    1  LIG1       -0.1338
      3 C           1.0934    2.2233    0.0000 C.ar    1  LIG1        0.2434
      4 N          -0.8079    1.0228   -0.0006 N.ar    1  LIG1       -0.1338
      5 N           1.8839    1.1519    0.0003 N.ar    1  LIG1       -0.1224
      6 N          -0.2376    2.1913   -0.0005 N.ar    1  LIG1       -0.1224
      7 H          -0.4933   -1.0186   -0.0004 H       1  LIG1        0.1085
      8 C           1.7517    3.5647    0.0001 C.ar    1  LIG1        0.2435
      9 N           0.9637    4.6398    0.0003 N.ar    1  LIG1       -0.1218
     10 C           2.8687    5.8498    0.0003 C.ar    1  LIG1        0.2099
     11 N           3.0819    3.6003    0.0001 N.ar    1  LIG1       -0.1218
     12 N           1.5292    5.8037    0.0004 N.ar    1  LIG1       -0.1246
     13 N           3.6506    4.7642    0.0002 N.ar    1  LIG1       -0.1246
     14 C           3.5127    7.1564    0.0004 C.ar    1  LIG1        0.0605
     15 C           2.8872    8.3749    0.0005 C.ar    1  LIG1       -0.0431
     16 C           3.8158    9.4495    0.0005 C.ar    1  LIG1       -0.0433
     17 C           5.1161    9.0114    0.0003 C.ar    1  LIG1        0.0551
     18 S           5.2304    7.2929    0.0003 S.2     1  LIG1       -0.0820
     19 H           1.8126    8.4792    0.0006 H       1  LIG1        0.0630
     20 H           3.5386   10.4927    0.0006 H       1  LIG1        0.0630
     21 C           6.3268    9.8228    0.0002 C.ar    1  LIG1        0.1413
     22 C           6.5508   11.1659    0.0002 C.ar    1  LIG1       -0.0154
     23 C           7.9776   11.3260    0.0000 C.ar    1  LIG1       -0.0233
     24 C           8.4937   10.0726    0.0000 C.ar    1  LIG1        0.0926
     25 O           7.5026    9.1590    0.0002 O.2     1  LIG1       -0.4624
     26 H           9.4978    9.6870   -0.0000 H       1  LIG1        0.1029
     27 H           5.8038   11.9410    0.0002 H       1  LIG1        0.0655
     28 H           8.5308   12.2492   -0.0001 H       1  LIG1        0.0649
@<TRIPOS>BOND
     1     4     6   ar
     2     4     1   ar
     3     6     3   ar
     4     7     1    1
     5     1     2   ar
     6    28    23    1
     7    26    24    1
     8     3     8    1
     9     3     5   ar
    10    23    24   ar
    11    23    22   ar
    12    24    25   ar
    13    11     8   ar
    14    11    13   ar
    15     8     9   ar
    16    13    10   ar
    17    25    21   ar
    18    22    27    1
    19    22    21   ar
    20     2     5   ar
    21    21    17    1
    22    18    17   ar
    23    18    14   ar
    24     9    12   ar
    25    10    12   ar
    26    10    14    1
    27    17    16   ar
    28    14    15   ar
    29    16    15   ar
    30    16    20    1
    31    15    19    1
