@<TRIPOS>MOLECULE
mol_data/opt/m06hf/geoms/mol2/88-5-.out
 21 23 0 0 0
SMALL
GASTEIGER

@<TRIPOS>ATOM
      1 C           0.0043   -0.0177   -0.0003 C.ar    1  LIG1        0.1605
      2 N           1.3345    0.0124   -0.0002 N.ar    1  LIG1       -0.1338
      3 C           1.1213    2.2505    0.0000 C.ar    1  LIG1        0.2434
      4 N          -0.7827    1.0545   -0.0002 N.ar    1  LIG1       -0.1338
      5 N           1.9101    1.1783   -0.0000 N.ar    1  LIG1       -0.1224
      6 N          -0.2094    2.2217   -0.0001 N.ar    1  LIG1       -0.1224
      7 H          -0.4719   -0.9871   -0.0005 H       1  LIG1        0.1085
      8 C           1.7811    3.5920    0.0002 C.ar    1  LIG1        0.2435
      9 N           0.9948    4.6678    0.0003 N.ar    1  LIG1       -0.1218
     10 C           2.9023    5.8739    0.0004 C.ar    1  LIG1        0.2099
     11 N           3.1108    3.6248    0.0002 N.ar    1  LIG1       -0.1218
     12 N           1.5636    5.8306    0.0004 N.ar    1  LIG1       -0.1246
     13 N           3.6820    4.7882    0.0003 N.ar    1  LIG1       -0.1246
     14 C           3.5465    7.1836    0.0004 C.ar    1  LIG1        0.0598
     15 C           2.9198    8.3988    0.0005 C.ar    1  LIG1       -0.0438
     16 C           3.8512    9.4791    0.0004 C.ar    1  LIG1       -0.0540
     17 C           5.1446    9.0420    0.0001 C.ar    1  LIG1       -0.0236
     18 S           5.2640    7.3305    0.0004 S.2     1  LIG1       -0.0934
     19 H           6.0412    9.6408   -0.0000 H       1  LIG1        0.0693
     20 H           1.8445    8.4987    0.0006 H       1  LIG1        0.0630
     21 H           3.5703   10.5211    0.0003 H       1  LIG1        0.0623
@<TRIPOS>BOND
     1     7     1    1
     2     1     4   ar
     3     1     2   ar
     4     4     6   ar
     5     2     5   ar
     6     6     3   ar
     7    19    17    1
     8     5     3   ar
     9     3     8    1
    10    17    16   ar
    11    17    18   ar
    12    11     8   ar
    13    11    13   ar
    14     8     9   ar
    15    13    10   ar
    16     9    12   ar
    17    21    16    1
    18    16    15   ar
    19    10    12   ar
    20    10    14    1
    21    14    18   ar
    22    14    15   ar
    23    15    20    1
