@<TRIPOS>MOLECULE
mol_data/opt/m06hf/geoms/mol2/88-8.out
 20 22 0 0 0
SMALL
GASTEIGER

@<TRIPOS>ATOM
      1 C          -0.0007   -0.0014   -0.0001 C.ar    1  LIG1        0.1605
      2 N           1.3298    0.0201   -0.0000 N.ar    1  LIG1       -0.1338
      3 C           1.1290    2.2574    0.0000 C.ar    1  LIG1        0.2434
      4 N          -0.7816    1.0760   -0.0001 N.ar    1  LIG1       -0.1338
      5 N           1.9122    1.1824    0.0000 N.ar    1  LIG1       -0.1224
      6 N          -0.2009    2.2392   -0.0001 N.ar    1  LIG1       -0.1224
      7 H          -0.4838   -0.9674   -0.0002 H       1  LIG1        0.1085
      8 C           1.7986    3.5962    0.0001 C.ar    1  LIG1        0.2435
      9 N           1.0182    4.6741    0.0001 N.ar    1  LIG1       -0.1217
     10 C           2.9294    5.8573    0.0001 C.ar    1  LIG1        0.2435
     11 N           3.1291    3.6184    0.0001 N.ar    1  LIG1       -0.1217
     12 N           1.5989    5.8351    0.0001 N.ar    1  LIG1       -0.1217
     13 N           3.7097    4.7794    0.0001 N.ar    1  LIG1       -0.1217
     14 C           3.5990    7.1961    0.0003 C.ar    1  LIG1        0.2434
     15 N           4.9288    7.2143    0.0001 N.ar    1  LIG1       -0.1224
     16 C           4.7286    9.4549   -0.0004 C.ar    1  LIG1        0.1605
     17 N           2.8158    8.2711    0.0001 N.ar    1  LIG1       -0.1224
     18 N           5.5096    8.3775   -0.0001 N.ar    1  LIG1       -0.1338
     19 N           3.3982    9.4334   -0.0001 N.ar    1  LIG1       -0.1338
     20 H           5.2118   10.4209   -0.0001 H       1  LIG1        0.1085
@<TRIPOS>BOND
     1    16    18   ar
     2    16    19   ar
     3    16    20    1
     4     7     1    1
     5     4     1   ar
     6     4     6   ar
     7    18    15   ar
     8    19    17   ar
     9     1     2   ar
    10     6     3   ar
    11     2     5   ar
    12     3     5   ar
    13     3     8    1
    14    15    14   ar
    15     9    12   ar
    16     9     8   ar
    17    12    10   ar
    18    10    13   ar
    19    10    14    1
    20     8    11   ar
    21    17    14   ar
    22    11    13   ar
