@<TRIPOS>MOLECULE
mol_data/opt/m06hf/geoms/mol2/88-84-.out
 30 33 0 0 0
SMALL
GASTEIGER

@<TRIPOS>ATOM
      1 C          -0.0298   -0.0304    0.0005 C.ar    1  LIG1        0.1605
      2 N           1.3007   -0.0121    0.0007 N.ar    1  LIG1       -0.1338
      3 C           1.1057    2.2260    0.0002 C.ar    1  LIG1        0.2434
      4 N          -0.8079    1.0489    0.0002 N.ar    1  LIG1       -0.1338
      5 N           1.8860    1.1487    0.0005 N.ar    1  LIG1       -0.1224
      6 N          -0.2243    2.2107   -0.0000 N.ar    1  LIG1       -0.1224
      7 H          -0.5153   -0.9952    0.0006 H       1  LIG1        0.1085
      8 C           1.7786    3.5631   -0.0000 C.ar    1  LIG1        0.2435
      9 N           1.0012    4.6430   -0.0003 N.ar    1  LIG1       -0.1217
     10 C           2.9157    5.8227   -0.0003 C.ar    1  LIG1        0.2435
     11 N           3.1090    3.5823    0.0001 N.ar    1  LIG1       -0.1217
     12 N           1.5843    5.8026   -0.0004 N.ar    1  LIG1       -0.1217
     13 N           3.6929    4.7415    0.0000 N.ar    1  LIG1       -0.1217
     14 C           3.5874    7.1574   -0.0005 C.ar    1  LIG1        0.2435
     15 N           4.9174    7.1782   -0.0003 N.ar    1  LIG1       -0.1218
     16 C           4.7331    9.4341   -0.0007 C.ar    1  LIG1        0.2034
     17 N           2.8116    8.2379   -0.0007 N.ar    1  LIG1       -0.1218
     18 N           5.4982    8.3362   -0.0005 N.ar    1  LIG1       -0.1251
     19 N           3.3955    9.3943   -0.0009 N.ar    1  LIG1       -0.1251
     20 C           4.6256   11.9200   -0.0013 C.ar    1  LIG1       -0.0509
     21 C           5.2550   13.1592   -0.0015 C.ar    1  LIG1       -0.0611
     22 C           5.3989   10.7572   -0.0010 C.ar    1  LIG1        0.0226
     23 C           6.6464   13.2361   -0.0014 C.ar    1  LIG1       -0.0617
     24 H           4.6603   14.0625   -0.0018 H       1  LIG1        0.0618
     25 C           6.7936   10.8290   -0.0009 C.ar    1  LIG1       -0.0509
     26 C           7.4137   12.0729   -0.0011 C.ar    1  LIG1       -0.0611
     27 H           7.3740    9.9165   -0.0006 H       1  LIG1        0.0625
     28 H           7.1329   14.2029   -0.0016 H       1  LIG1        0.0618
     29 H           3.5469   11.8424   -0.0014 H       1  LIG1        0.0625
     30 H           8.4935   12.1335   -0.0010 H       1  LIG1        0.0618
@<TRIPOS>BOND
     1    24    21    1
     2    28    23    1
     3    21    23   ar
     4    21    20   ar
     5    23    26   ar
     6    29    20    1
     7    20    22   ar
     8    26    30    1
     9    26    25   ar
    10    22    25   ar
    11    22    16    1
    12    25    27    1
    13    19    16   ar
    14    19    17   ar
    15    16    18   ar
    16    17    14   ar
    17    18    15   ar
    18    14    15   ar
    19    14    10    1
    20    12     9   ar
    21    12    10   ar
    22     9     8   ar
    23    10    13   ar
    24     6     4   ar
    25     6     3   ar
    26     8    11   ar
    27     8     3    1
    28    13    11   ar
    29     4     1   ar
    30     3     5   ar
    31     1     7    1
    32     1     2   ar
    33     5     2   ar
