@<TRIPOS>MOLECULE
mol_data/opt/m06hf/geoms/mol2/88.out
 14 15 0 0 0
SMALL
GASTEIGER

@<TRIPOS>ATOM
      1 C           0.0059    0.0117   -0.0001 C.ar    1  LIG1        0.1605
      2 N           1.3361    0.0334    0.0001 N.ar    1  LIG1       -0.1338
      3 C           1.1361    2.2718   -0.0000 C.ar    1  LIG1        0.2434
      4 N          -0.7747    1.0890   -0.0001 N.ar    1  LIG1       -0.1338
      5 N           1.9185    1.1959    0.0001 N.ar    1  LIG1       -0.1224
      6 N          -0.1940    2.2524   -0.0001 N.ar    1  LIG1       -0.1224
      7 H          -0.4772   -0.9543   -0.0002 H       1  LIG1        0.1085
      8 C           1.8061    3.6114    0.0004 C.ar    1  LIG1        0.2434
      9 N           3.1362    3.6308    0.0001 N.ar    1  LIG1       -0.1224
     10 C           2.9363    5.8714   -0.0005 C.ar    1  LIG1        0.1605
     11 N           1.0237    4.6872    0.0002 N.ar    1  LIG1       -0.1224
     12 N           3.7170    4.7941   -0.0001 N.ar    1  LIG1       -0.1338
     13 N           1.6062    5.8498   -0.0000 N.ar    1  LIG1       -0.1338
     14 H           3.4195    6.8374    0.0001 H       1  LIG1        0.1085
@<TRIPOS>BOND
     1    10    12   ar
     2    10    13   ar
     3    10    14    1
     4     7     1    1
     5    12     9   ar
     6     4     6   ar
     7     4     1   ar
     8     6     3   ar
     9     1     2   ar
    10    13    11   ar
    11     3     5   ar
    12     3     8    1
    13     2     5   ar
    14     9     8   ar
    15    11     8   ar
