@<TRIPOS>MOLECULE
mol_data/opt/m06hf/geoms/mol2/8813-5-.out
 29 32 0 0 0
SMALL
GASTEIGER

@<TRIPOS>ATOM
      1 C           0.0431   -0.0491    0.0002 C.ar    1  LIG1        0.1605
      2 N           1.3721    0.0031    0.0003 N.ar    1  LIG1       -0.1338
      3 C           1.1220    2.2383    0.0002 C.ar    1  LIG1        0.2434
      4 N          -0.7621    1.0100    0.0001 N.ar    1  LIG1       -0.1338
      5 N           1.9285    1.1786    0.0003 N.ar    1  LIG1       -0.1224
      6 N          -0.2083    2.1871    0.0001 N.ar    1  LIG1       -0.1224
      7 H          -0.4175   -1.0261    0.0002 H       1  LIG1        0.1085
      8 C           1.7621    3.5879    0.0001 C.ar    1  LIG1        0.2435
      9 N           3.0906    3.6416    0.0002 N.ar    1  LIG1       -0.1218
     10 C           2.8434    5.8899   -0.0001 C.ar    1  LIG1        0.2194
     11 N           0.9579    4.6535   -0.0000 N.ar    1  LIG1       -0.1218
     12 N           3.6421    4.8144    0.0001 N.ar    1  LIG1       -0.1236
     13 N           1.5028    5.8258   -0.0002 N.ar    1  LIG1       -0.1236
     14 C           3.4787    7.1887   -0.0005 C.ar    1  LIG1        0.0880
     15 C           2.9454    8.4656   -0.0009 C.ar    1  LIG1       -0.0326
     16 C           4.0327    9.3596   -0.0011 C.ar    1  LIG1       -0.0352
     17 C           5.1999    8.6008   -0.0009 C.ar    1  LIG1        0.0536
     18 N           4.8401    7.2931   -0.0005 N.ar    1  LIG1       -0.3512
     19 H           5.4495    6.4852   -0.0001 H       1  LIG1        0.1660
     20 H           1.8942    8.6980   -0.0010 H       1  LIG1        0.0640
     21 H           3.9851   10.4349   -0.0015 H       1  LIG1        0.0639
     22 C           6.5965    9.0366   -0.0012 C.ar    1  LIG1        0.0355
     23 C           7.0601   10.3214   -0.0000 C.ar    1  LIG1       -0.0455
     24 C           8.4899   10.3930   -0.0009 C.ar    1  LIG1       -0.0541
     25 C           9.0736    9.1651   -0.0026 C.ar    1  LIG1       -0.0237
     26 S           7.9033    7.9039   -0.0030 S.2     1  LIG1       -0.0952
     27 H          10.1235    8.9232   -0.0035 H       1  LIG1        0.0693
     28 H           6.4122   11.1852    0.0014 H       1  LIG1        0.0629
     29 H           9.0462   11.3180   -0.0002 H       1  LIG1        0.0623
@<TRIPOS>BOND
     1    27    25    1
     2    26    25   ar
     3    26    22   ar
     4    25    24   ar
     5    21    16    1
     6    22    17    1
     7    22    23   ar
     8    16    17   ar
     9    16    15   ar
    10    20    15    1
    11    17    18   ar
    12    24    29    1
    13    24    23   ar
    14    15    14   ar
    15    18    14   ar
    16    18    19    1
    17    14    10    1
    18    13    10   ar
    19    13    11   ar
    20    10    12   ar
    21    11     8   ar
    22    23    28    1
    23    12     9   ar
    24     6     4   ar
    25     6     3   ar
    26     4     1   ar
    27     8     9   ar
    28     8     3    1
    29     3     5   ar
    30     7     1    1
    31     1     2   ar
    32     5     2   ar
